*SPEF "ieee 1481-1999"
*DESIGN "top"
*DATE "20:51:44 Thursday February 05, 2026"
*VENDOR "The OpenROAD Project"
*PROGRAM "OpenROAD"
*VERSION "edf00dff99f6c40d67a30c0e22a8191c5d2ed9d6"
*DESIGN_FLOW "NAME_SCOPE LOCAL" "PIN_CAP NONE"
*DIVIDER /
*DELIMITER :
*BUS_DELIMITER []
*T_UNIT 1 NS
*C_UNIT 1 PF
*R_UNIT 1 OHM
*L_UNIT 1 HENRY

*NAME_MAP
*3 busy
*4 clk
*5 data_in[0]
*6 data_in[1]
*7 data_in[2]
*8 data_in[3]
*9 data_in[4]
*10 data_in[5]
*11 data_in[6]
*12 data_in[7]
*13 en
*14 rst
*15 tx
*16 _000_
*17 _001_
*18 _002_
*19 _003_
*20 _004_
*21 _005_
*22 _006_
*23 _007_
*24 _008_
*25 _009_
*26 _010_
*27 _011_
*28 _012_
*29 _013_
*30 _014_
*31 _015_
*32 _016_
*33 _017_
*34 _018_
*35 _019_
*36 _020_
*37 _021_
*38 _022_
*39 _023_
*40 _024_
*41 _025_
*42 _026_
*43 _027_
*44 _028_
*45 _029_
*46 _030_
*47 _031_
*48 _032_
*49 _033_
*50 _034_
*51 _035_
*52 _036_
*53 _037_
*54 _038_
*55 _039_
*56 _040_
*57 _041_
*58 _042_
*59 _043_
*60 _044_
*61 _045_
*62 _046_
*63 _047_
*64 _048_
*65 _049_
*66 _050_
*67 _051_
*68 _052_
*69 _053_
*70 _054_
*71 _055_
*72 _056_
*73 _057_
*74 _058_
*75 _059_
*76 _060_
*77 _061_
*78 _062_
*79 _063_
*80 _064_
*81 _065_
*82 _066_
*83 _067_
*84 _068_
*85 _069_
*86 _070_
*87 _071_
*88 _072_
*89 _073_
*90 _074_
*91 _075_
*92 _076_
*93 _077_
*94 _078_
*95 _079_
*96 _080_
*97 _081_
*98 _082_
*99 _083_
*100 _084_
*101 _085_
*102 _086_
*103 _087_
*104 _088_
*105 _089_
*106 _090_
*107 _091_
*108 _092_
*109 _093_
*110 _094_
*111 _095_
*112 _096_
*113 _097_
*114 _098_
*115 _099_
*116 _100_
*117 _101_
*118 _102_
*119 _103_
*120 _104_
*121 _105_
*122 _106_
*123 _107_
*124 _108_
*125 _109_
*126 baud_inst\.baud_tick
*127 baud_inst\.cnt\[0\]
*128 baud_inst\.cnt\[10\]
*129 baud_inst\.cnt\[11\]
*130 baud_inst\.cnt\[12\]
*131 baud_inst\.cnt\[1\]
*132 baud_inst\.cnt\[2\]
*133 baud_inst\.cnt\[3\]
*134 baud_inst\.cnt\[4\]
*135 baud_inst\.cnt\[5\]
*136 baud_inst\.cnt\[6\]
*137 baud_inst\.cnt\[7\]
*138 baud_inst\.cnt\[8\]
*139 baud_inst\.cnt\[9\]
*140 clknet_0_clk
*141 clknet_2_0__leaf_clk
*142 clknet_2_1__leaf_clk
*143 clknet_2_2__leaf_clk
*144 clknet_2_3__leaf_clk
*145 net1
*146 net10
*147 net11
*148 net12
*149 net13
*150 net14
*151 net15
*152 net16
*153 net17
*154 net18
*155 net19
*156 net2
*157 net20
*158 net21
*159 net22
*160 net23
*161 net24
*162 net25
*163 net26
*164 net27
*165 net28
*166 net29
*167 net3
*168 net30
*169 net31
*170 net32
*171 net33
*172 net34
*173 net35
*174 net36
*175 net37
*176 net4
*177 net5
*178 net6
*179 net7
*180 net8
*181 net9
*182 uart_tx_inst\.cnt\[0\]
*183 uart_tx_inst\.cnt\[1\]
*184 uart_tx_inst\.cnt\[2\]
*185 uart_tx_inst\.data_reg\[0\]
*186 uart_tx_inst\.data_reg\[1\]
*187 uart_tx_inst\.data_reg\[2\]
*188 uart_tx_inst\.data_reg\[3\]
*189 uart_tx_inst\.data_reg\[4\]
*190 uart_tx_inst\.data_reg\[5\]
*191 uart_tx_inst\.data_reg\[6\]
*192 uart_tx_inst\.data_reg\[7\]
*193 uart_tx_inst\.state\[0\]
*194 uart_tx_inst\.state\[1\]
*195 uart_tx_inst\.state\[2\]
*196 uart_tx_inst\.state\[3\]
*197 FILLER_0_109
*198 FILLER_0_113
*199 FILLER_0_119
*200 FILLER_0_18
*201 FILLER_0_26
*202 FILLER_0_36
*203 FILLER_0_48
*204 FILLER_0_52
*205 FILLER_0_57
*206 FILLER_0_6
*207 FILLER_0_69
*208 FILLER_0_81
*209 FILLER_0_85
*210 FILLER_0_97
*211 FILLER_10_109
*212 FILLER_10_117
*213 FILLER_10_14
*214 FILLER_10_25
*215 FILLER_10_36
*216 FILLER_10_44
*217 FILLER_10_48
*218 FILLER_10_6
*219 FILLER_10_75
*220 FILLER_10_83
*221 FILLER_10_85
*222 FILLER_10_97
*223 FILLER_11_104
*224 FILLER_11_113
*225 FILLER_11_119
*226 FILLER_11_15
*227 FILLER_11_3
*228 FILLER_11_33
*229 FILLER_11_54
*230 FILLER_11_57
*231 FILLER_11_80
*232 FILLER_11_88
*233 FILLER_11_92
*234 FILLER_12_106
*235 FILLER_12_118
*236 FILLER_12_23
*237 FILLER_12_27
*238 FILLER_12_29
*239 FILLER_12_46
*240 FILLER_12_50
*241 FILLER_12_83
*242 FILLER_13_105
*243 FILLER_13_111
*244 FILLER_13_113
*245 FILLER_13_119
*246 FILLER_13_29
*247 FILLER_13_38
*248 FILLER_13_6
*249 FILLER_13_63
*250 FILLER_14_11
*251 FILLER_14_115
*252 FILLER_14_119
*253 FILLER_14_27
*254 FILLER_14_3
*255 FILLER_14_49
*256 FILLER_14_63
*257 FILLER_14_85
*258 FILLER_15_111
*259 FILLER_15_113
*260 FILLER_15_119
*261 FILLER_15_38
*262 FILLER_15_50
*263 FILLER_15_62
*264 FILLER_15_75
*265 FILLER_15_87
*266 FILLER_15_99
*267 FILLER_16_109
*268 FILLER_16_117
*269 FILLER_16_26
*270 FILLER_16_44
*271 FILLER_16_57
*272 FILLER_16_81
*273 FILLER_16_85
*274 FILLER_16_97
*275 FILLER_17_106
*276 FILLER_17_113
*277 FILLER_17_119
*278 FILLER_17_49
*279 FILLER_17_57
*280 FILLER_17_94
*281 FILLER_18_10
*282 FILLER_18_109
*283 FILLER_18_115
*284 FILLER_18_29
*285 FILLER_18_39
*286 FILLER_18_6
*287 FILLER_18_70
*288 FILLER_18_83
*289 FILLER_18_85
*290 FILLER_18_97
*291 FILLER_19_109
*292 FILLER_19_113
*293 FILLER_19_119
*294 FILLER_19_17
*295 FILLER_19_23
*296 FILLER_19_27
*297 FILLER_19_29
*298 FILLER_19_37
*299 FILLER_19_48
*300 FILLER_19_57
*301 FILLER_19_65
*302 FILLER_19_74
*303 FILLER_19_82
*304 FILLER_19_85
*305 FILLER_19_9
*306 FILLER_19_97
*307 FILLER_1_106
*308 FILLER_1_113
*309 FILLER_1_119
*310 FILLER_1_12
*311 FILLER_1_19
*312 FILLER_1_3
*313 FILLER_1_67
*314 FILLER_1_94
*315 FILLER_2_36
*316 FILLER_2_68
*317 FILLER_2_91
*318 FILLER_3_102
*319 FILLER_3_110
*320 FILLER_3_23
*321 FILLER_3_36
*322 FILLER_3_50
*323 FILLER_3_57
*324 FILLER_4_112
*325 FILLER_4_7
*326 FILLER_4_74
*327 FILLER_4_91
*328 FILLER_5_111
*329 FILLER_5_113
*330 FILLER_5_119
*331 FILLER_5_14
*332 FILLER_5_54
*333 FILLER_5_57
*334 FILLER_5_6
*335 FILLER_5_69
*336 FILLER_5_99
*337 FILLER_6_23
*338 FILLER_6_27
*339 FILLER_6_52
*340 FILLER_6_58
*341 FILLER_6_74
*342 FILLER_6_82
*343 FILLER_7_110
*344 FILLER_7_116
*345 FILLER_7_18
*346 FILLER_7_3
*347 FILLER_7_47
*348 FILLER_7_52
*349 FILLER_7_90
*350 FILLER_8_114
*351 FILLER_8_25
*352 FILLER_8_29
*353 FILLER_8_35
*354 FILLER_8_6
*355 FILLER_8_60
*356 FILLER_9_100
*357 FILLER_9_104
*358 FILLER_9_113
*359 FILLER_9_119
*360 FILLER_9_3
*361 FILLER_9_35
*362 FILLER_9_47
*363 FILLER_9_55
*364 FILLER_9_57
*365 FILLER_9_69
*366 FILLER_9_96
*367 PHY_EDGE_ROW_0_Left_20
*368 PHY_EDGE_ROW_0_Right_0
*369 PHY_EDGE_ROW_10_Left_30
*370 PHY_EDGE_ROW_10_Right_10
*371 PHY_EDGE_ROW_11_Left_31
*372 PHY_EDGE_ROW_11_Right_11
*373 PHY_EDGE_ROW_12_Left_32
*374 PHY_EDGE_ROW_12_Right_12
*375 PHY_EDGE_ROW_13_Left_33
*376 PHY_EDGE_ROW_13_Right_13
*377 PHY_EDGE_ROW_14_Left_34
*378 PHY_EDGE_ROW_14_Right_14
*379 PHY_EDGE_ROW_15_Left_35
*380 PHY_EDGE_ROW_15_Right_15
*381 PHY_EDGE_ROW_16_Left_36
*382 PHY_EDGE_ROW_16_Right_16
*383 PHY_EDGE_ROW_17_Left_37
*384 PHY_EDGE_ROW_17_Right_17
*385 PHY_EDGE_ROW_18_Left_38
*386 PHY_EDGE_ROW_18_Right_18
*387 PHY_EDGE_ROW_19_Left_39
*388 PHY_EDGE_ROW_19_Right_19
*389 PHY_EDGE_ROW_1_Left_21
*390 PHY_EDGE_ROW_1_Right_1
*391 PHY_EDGE_ROW_2_Left_22
*392 PHY_EDGE_ROW_2_Right_2
*393 PHY_EDGE_ROW_3_Left_23
*394 PHY_EDGE_ROW_3_Right_3
*395 PHY_EDGE_ROW_4_Left_24
*396 PHY_EDGE_ROW_4_Right_4
*397 PHY_EDGE_ROW_5_Left_25
*398 PHY_EDGE_ROW_5_Right_5
*399 PHY_EDGE_ROW_6_Left_26
*400 PHY_EDGE_ROW_6_Right_6
*401 PHY_EDGE_ROW_7_Left_27
*402 PHY_EDGE_ROW_7_Right_7
*403 PHY_EDGE_ROW_8_Left_28
*404 PHY_EDGE_ROW_8_Right_8
*405 PHY_EDGE_ROW_9_Left_29
*406 PHY_EDGE_ROW_9_Right_9
*407 TAP_TAPCELL_ROW_0_40
*408 TAP_TAPCELL_ROW_0_41
*409 TAP_TAPCELL_ROW_0_42
*410 TAP_TAPCELL_ROW_0_43
*411 TAP_TAPCELL_ROW_10_62
*412 TAP_TAPCELL_ROW_10_63
*413 TAP_TAPCELL_ROW_11_64
*414 TAP_TAPCELL_ROW_11_65
*415 TAP_TAPCELL_ROW_12_66
*416 TAP_TAPCELL_ROW_12_67
*417 TAP_TAPCELL_ROW_13_68
*418 TAP_TAPCELL_ROW_13_69
*419 TAP_TAPCELL_ROW_14_70
*420 TAP_TAPCELL_ROW_14_71
*421 TAP_TAPCELL_ROW_15_72
*422 TAP_TAPCELL_ROW_15_73
*423 TAP_TAPCELL_ROW_16_74
*424 TAP_TAPCELL_ROW_16_75
*425 TAP_TAPCELL_ROW_17_76
*426 TAP_TAPCELL_ROW_17_77
*427 TAP_TAPCELL_ROW_18_78
*428 TAP_TAPCELL_ROW_18_79
*429 TAP_TAPCELL_ROW_19_80
*430 TAP_TAPCELL_ROW_19_81
*431 TAP_TAPCELL_ROW_19_82
*432 TAP_TAPCELL_ROW_19_83
*433 TAP_TAPCELL_ROW_1_44
*434 TAP_TAPCELL_ROW_1_45
*435 TAP_TAPCELL_ROW_2_46
*436 TAP_TAPCELL_ROW_2_47
*437 TAP_TAPCELL_ROW_3_48
*438 TAP_TAPCELL_ROW_3_49
*439 TAP_TAPCELL_ROW_4_50
*440 TAP_TAPCELL_ROW_4_51
*441 TAP_TAPCELL_ROW_5_52
*442 TAP_TAPCELL_ROW_5_53
*443 TAP_TAPCELL_ROW_6_54
*444 TAP_TAPCELL_ROW_6_55
*445 TAP_TAPCELL_ROW_7_56
*446 TAP_TAPCELL_ROW_7_57
*447 TAP_TAPCELL_ROW_8_58
*448 TAP_TAPCELL_ROW_8_59
*449 TAP_TAPCELL_ROW_9_60
*450 TAP_TAPCELL_ROW_9_61
*451 _110_
*452 _111_
*453 _112_
*454 _113_
*455 _114_
*456 _115_
*457 _116_
*458 _117_
*459 _118_
*460 _119_
*461 _120_
*462 _121_
*463 _122_
*464 _123_
*465 _124_
*466 _125_
*467 _126_
*468 _127_
*469 _128_
*470 _129_
*471 _130_
*472 _131_
*473 _132_
*474 _133_
*475 _134_
*476 _135_
*477 _136_
*478 _137_
*479 _138_
*480 _139_
*481 _140_
*482 _141_
*483 _142_
*484 _143_
*485 _144_
*486 _145_
*487 _146_
*488 _147_
*489 _148_
*490 _149_
*491 _150_
*492 _151_
*493 _152_
*494 _153_
*495 _154_
*496 _155_
*497 _156_
*498 _157_
*499 _158_
*500 _159_
*501 _160_
*502 _161_
*503 _162_
*504 _163_
*505 _164_
*506 _165_
*507 _166_
*508 _167_
*509 _168_
*510 _169_
*511 _170_
*512 _171_
*513 _172_
*514 _173_
*515 _174_
*516 _175_
*517 _176_
*518 _177_
*519 _178_
*520 _179_
*521 _180_
*522 _181_
*523 _182_
*524 _183_
*525 _184_
*526 _185_
*527 _186_
*528 _187_
*529 _188_
*530 _189_
*531 _190_
*532 _191_
*533 _192_
*534 _193_
*535 _194_
*536 _195_
*537 _196_
*538 _197_
*539 _198_
*540 _199_
*541 _200_
*542 _201_
*543 _202_
*544 _203_
*545 _204_
*546 _205_
*547 _206_
*548 _207_
*549 _208_
*550 _209_
*551 _210_
*552 _211_
*553 _212_
*554 _213_
*555 _214_
*556 _215_
*557 _216_
*558 _217_
*559 _218_
*560 _219_
*561 _220_
*562 _221_
*563 _222_
*564 _223_
*565 _224_
*566 _225_
*567 _226_
*568 _227_
*569 _228_
*570 _229_
*571 _230_
*572 _231_
*573 _232_
*574 _233_
*575 _234_
*576 _235_
*577 _236_
*578 _237_
*579 _238_
*580 _239_
*581 _240_
*582 _241_
*583 _242_
*584 _243_
*585 _244_
*586 _245_
*587 _246_
*588 _247_
*589 _248_
*590 _249_
*591 _250_
*592 clkbuf_0_clk
*593 clkbuf_2_0__f_clk
*594 clkbuf_2_1__f_clk
*595 clkbuf_2_2__f_clk
*596 clkbuf_2_3__f_clk
*597 clkload0
*598 clkload1
*599 clkload2
*600 fanout13
*601 fanout14
*602 fanout15
*603 fanout16
*604 fanout17
*605 fanout18
*606 hold1
*607 hold10
*608 hold11
*609 hold12
*610 hold13
*611 hold14
*612 hold15
*613 hold16
*614 hold17
*615 hold18
*616 hold19
*617 hold2
*618 hold3
*619 hold4
*620 hold5
*621 hold6
*622 hold7
*623 hold8
*624 hold9
*625 input1
*626 input10
*627 input2
*628 input3
*629 input4
*630 input5
*631 input6
*632 input7
*633 input8
*634 input9
*635 output11
*636 output12

*PORTS
busy O
clk I
data_in[0] I
data_in[1] I
data_in[2] I
data_in[3] I
data_in[4] I
data_in[5] I
data_in[6] I
data_in[7] I
en I
rst I
tx O

*D_NET *3 0.000549937
*CONN
*P busy O
*I *635:X O *D sky130_fd_sc_hd__buf_2
*CAP
1 busy 0.000244624
2 *635:X 0.000244624
3 busy *635:A 6.06899e-05
*RES
1 *635:X busy 5.86677 
*END

*D_NET *4 0.00656408
*CONN
*P clk I
*I *592:A I *D sky130_fd_sc_hd__clkbuf_16
*CAP
1 clk 0.0022436
2 *592:A 0.0022436
3 *592:A *504:B 0
4 *592:A *514:A 0.00022614
5 *592:A *516:A 9.30717e-05
6 *592:A *517:B 6.45236e-05
7 *592:A *531:C1 0
8 *592:A *549:A 0
9 *592:A *558:A 0.000503111
10 *592:A *561:D 0.000108982
11 *592:A *561:RESET_B 5.39718e-05
12 *592:A *567:D 2.25161e-05
13 *592:A *567:RESET_B 0
14 *592:A *574:D 0
15 *592:A *626:A 0
16 *592:A *99:10 0.000183738
17 *592:A *99:38 0.000577942
18 *592:A *102:40 3.47668e-05
19 *592:A *134:12 0.000198286
20 *592:A *134:45 0
21 *592:A *135:12 0
22 *592:A *154:53 9.82856e-06
*RES
1 clk *592:A 33.4568 
*END

*D_NET *5 0.000566003
*CONN
*P data_in[0] I
*I *625:A I *D sky130_fd_sc_hd__clkbuf_1
*CAP
1 data_in[0] 0.000283002
2 *625:A 0.000283002
3 *625:A *627:A 0
4 *625:A *634:A 0
*RES
1 data_in[0] *625:A 7.0893 
*END

*D_NET *6 0.000645774
*CONN
*P data_in[1] I
*I *627:A I *D sky130_fd_sc_hd__clkbuf_1
*CAP
1 data_in[1] 0.000322887
2 *627:A 0.000322887
3 *627:A *628:A 0
4 *625:A *627:A 0
*RES
1 data_in[1] *627:A 7.8543 
*END

*D_NET *7 0.000531065
*CONN
*P data_in[2] I
*I *628:A I *D sky130_fd_sc_hd__clkbuf_1
*CAP
1 data_in[2] 0.000265532
2 *628:A 0.000265532
3 *628:A *629:A 0
4 *627:A *628:A 0
*RES
1 data_in[2] *628:A 6.8343 
*END

*D_NET *8 0.000673865
*CONN
*P data_in[3] I
*I *629:A I *D sky130_fd_sc_hd__clkbuf_1
*CAP
1 data_in[3] 0.000336933
2 *629:A 0.000336933
3 *629:A *630:A 0
4 *629:A *143:26 0
5 *628:A *629:A 0
*RES
1 data_in[3] *629:A 8.1093 
*END

*D_NET *9 0.0005615
*CONN
*P data_in[4] I
*I *630:A I *D sky130_fd_sc_hd__clkbuf_1
*CAP
1 data_in[4] 0.00028075
2 *630:A 0.00028075
3 *630:A *631:A 0
4 *629:A *630:A 0
*RES
1 data_in[4] *630:A 7.0893 
*END

*D_NET *10 0.000645774
*CONN
*P data_in[5] I
*I *631:A I *D sky130_fd_sc_hd__clkbuf_1
*CAP
1 data_in[5] 0.000322887
2 *631:A 0.000322887
3 *631:A *632:A 0
4 *630:A *631:A 0
*RES
1 data_in[5] *631:A 7.8543 
*END

*D_NET *11 0.000742667
*CONN
*P data_in[6] I
*I *632:A I *D sky130_fd_sc_hd__clkbuf_1
*CAP
1 data_in[6] 0.000248837
2 *632:A 0.000248837
3 *632:A *633:A 0.000244993
4 *631:A *632:A 0
*RES
1 data_in[6] *632:A 7.3443 
*END

*D_NET *12 0.00145379
*CONN
*P data_in[7] I
*I *633:A I *D sky130_fd_sc_hd__clkbuf_1
*CAP
1 data_in[7] 0.000593843
2 *633:A 0.000593843
3 *633:A *487:A0 2.11084e-05
4 *632:A *633:A 0.000244993
*RES
1 data_in[7] *633:A 13.6454 
*END

*D_NET *13 0.000942741
*CONN
*P en I
*I *634:A I *D sky130_fd_sc_hd__clkbuf_2
*CAP
1 en 0.000354959
2 *634:A 0.000354959
3 *634:A *469:A 0
4 *634:A *562:CLK 0.000152071
5 *634:A *562:RESET_B 8.07512e-05
6 *634:A *626:A 0
7 *634:A *151:14 0
8 *625:A *634:A 0
*RES
1 en *634:A 8.22003 
*END

*D_NET *14 0.000523624
*CONN
*P rst I
*I *626:A I *D sky130_fd_sc_hd__clkbuf_1
*CAP
1 rst 0.000261812
2 *626:A 0.000261812
3 *592:A *626:A 0
4 *634:A *626:A 0
*RES
1 rst *626:A 6.8343 
*END

*D_NET *15 0.000494302
*CONN
*P tx O
*I *636:X O *D sky130_fd_sc_hd__buf_2
*CAP
1 tx 0.000238023
2 *636:X 0.000238023
3 tx *580:SET_B 8.66976e-06
4 tx *636:A 9.58678e-06
*RES
1 *636:X tx 4.90503 
*END

*D_NET *16 0.000873931
*CONN
*I *575:D I *D sky130_fd_sc_hd__dfstp_1
*I *500:X O *D sky130_fd_sc_hd__a22o_1
*CAP
1 *575:D 0.000376735
2 *500:X 0.000376735
3 *575:D *494:A1 2.97004e-06
4 *575:D *559:A 7.00889e-06
5 *575:D *560:A 6.55328e-05
6 *575:D *181:34 4.49498e-05
*RES
1 *500:X *575:D 12.135 
*END

*D_NET *17 0.000616906
*CONN
*I *576:D I *D sky130_fd_sc_hd__dfrtp_1
*I *499:X O *D sky130_fd_sc_hd__a22o_1
*CAP
1 *576:D 0.000145067
2 *499:X 0.000145067
3 *576:D *499:B1 0.000274668
4 *576:D *577:RESET_B 5.21046e-05
5 *576:D *617:A 0
*RES
1 *499:X *576:D 10.815 
*END

*D_NET *18 0.000493694
*CONN
*I *577:D I *D sky130_fd_sc_hd__dfrtp_1
*I *498:X O *D sky130_fd_sc_hd__a21bo_1
*CAP
1 *577:D 0.000140049
2 *498:X 0.000140049
3 *577:D *475:A 2.49909e-05
4 *577:D *477:C 2.97004e-06
5 *577:D *484:S 7.06865e-05
6 *577:D *499:A1 3.1562e-06
7 *577:D *84:8 6.14776e-05
8 *577:D *194:61 5.03144e-05
*RES
1 *498:X *577:D 9.885 
*END

*D_NET *19 0.000314019
*CONN
*I *578:D I *D sky130_fd_sc_hd__dfrtp_1
*I *497:X O *D sky130_fd_sc_hd__a22o_1
*CAP
1 *578:D 9.26382e-05
2 *497:X 9.26382e-05
3 *578:D *193:16 0.000128742
*RES
1 *497:X *578:D 5.15 
*END

*D_NET *20 0.00139705
*CONN
*I *561:D I *D sky130_fd_sc_hd__dfrtp_2
*I *507:Y O *D sky130_fd_sc_hd__inv_2
*CAP
1 *561:D 0.000345605
2 *507:Y 0.000345605
3 *561:D *549:A 0.000141599
4 *561:D *561:RESET_B 9.71067e-05
5 *561:D *593:A 3.00381e-05
6 *561:D *151:114 0.000328117
7 *592:A *561:D 0.000108982
*RES
1 *507:Y *561:D 14.4038 
*END

*D_NET *21 0.000885025
*CONN
*I *562:D I *D sky130_fd_sc_hd__dfrtp_1
*I *469:Y O *D sky130_fd_sc_hd__inv_2
*CAP
1 *562:D 0.000185214
2 *469:Y 0.000185214
3 *562:D *469:A 0.000316806
4 *562:D *562:RESET_B 0.000197792
*RES
1 *469:Y *562:D 12.36 
*END

*D_NET *22 0.000422662
*CONN
*I *572:D I *D sky130_fd_sc_hd__dfrtp_1
*I *531:X O *D sky130_fd_sc_hd__o211a_1
*CAP
1 *572:D 9.72203e-05
2 *531:X 9.72203e-05
3 *572:D *138:50 4.94404e-05
4 *572:D *139:41 8.57024e-05
5 *572:D *154:64 9.30787e-05
*RES
1 *531:X *572:D 9.12 
*END

*D_NET *23 0.000602875
*CONN
*I *573:D I *D sky130_fd_sc_hd__dfrtp_1
*I *533:Y O *D sky130_fd_sc_hd__a22oi_1
*CAP
1 *573:D 0.000170234
2 *533:Y 0.000170234
3 *573:D *533:B2 7.23602e-05
4 *573:D *114:16 7.23602e-05
5 *573:D *142:31 0.000117687
*RES
1 *533:Y *573:D 9.94875 
*END

*D_NET *24 0.000276181
*CONN
*I *574:D I *D sky130_fd_sc_hd__dfrtp_1
*I *536:X O *D sky130_fd_sc_hd__and3_1
*CAP
1 *574:D 9.95545e-05
2 *536:X 9.95545e-05
3 *574:D *493:S 4.70343e-05
4 *574:D *593:A 3.00381e-05
5 *592:A *574:D 0
*RES
1 *536:X *574:D 9.03 
*END

*D_NET *25 0.00101773
*CONN
*I *563:D I *D sky130_fd_sc_hd__dfrtp_1
*I *509:Y O *D sky130_fd_sc_hd__nor2_1
*CAP
1 *563:D 0.000384748
2 *509:Y 0.000384748
3 *563:D *509:B 5.2089e-05
4 *563:D *563:RESET_B 3.68596e-05
5 *563:D *141:78 0.000159283
*RES
1 *509:Y *563:D 12.585 
*END

*D_NET *26 0.000734261
*CONN
*I *564:D I *D sky130_fd_sc_hd__dfrtp_1
*I *510:X O *D sky130_fd_sc_hd__xor2_1
*CAP
1 *564:D 0.000241637
2 *510:X 0.000241637
3 *564:D *605:A 0.000241483
4 *564:D *94:20 9.50342e-06
*RES
1 *510:X *564:D 10.755 
*END

*D_NET *27 0.00155708
*CONN
*I *565:D I *D sky130_fd_sc_hd__dfrtp_1
*I *512:X O *D sky130_fd_sc_hd__a21bo_1
*CAP
1 *565:D 0.000386913
2 *512:X 0.000386913
3 *565:D *493:A0 0.000142661
4 *565:D *565:CLK 0.000131876
5 *565:D *565:RESET_B 0.000150348
6 *565:D *608:A 0.000158532
7 *565:D *99:38 0
8 *565:D *133:14 6.13283e-05
9 *565:D *141:62 0.00011099
10 *565:D *181:32 2.75229e-05
*RES
1 *512:X *565:D 16.035 
*END

*D_NET *28 0.000359465
*CONN
*I *566:D I *D sky130_fd_sc_hd__dfrtp_1
*I *516:X O *D sky130_fd_sc_hd__and3_1
*CAP
1 *566:D 0.00011339
2 *516:X 0.00011339
3 *566:D *567:D 2.66935e-05
4 *566:D *102:12 3.45679e-05
5 *566:D *154:53 7.14241e-05
*RES
1 *516:X *566:D 9.225 
*END

*D_NET *29 0.00186309
*CONN
*I *567:D I *D sky130_fd_sc_hd__dfrtp_1
*I *518:Y O *D sky130_fd_sc_hd__a21oi_1
*CAP
1 *567:D 0.000404153
2 *518:Y 0.000404153
3 *567:D *516:A 5.13155e-05
4 *567:D *516:B 0.000268739
5 *567:D *518:A2 3.74161e-05
6 *567:D *99:10 9.76522e-05
7 *567:D *99:38 0.00011219
8 *567:D *151:50 5.54938e-05
9 *567:D *154:53 0.000382764
10 *566:D *567:D 2.66935e-05
11 *592:A *567:D 2.25161e-05
*RES
1 *518:Y *567:D 17.325 
*END

*D_NET *30 0.000740765
*CONN
*I *568:D I *D sky130_fd_sc_hd__dfrtp_1
*I *521:X O *D sky130_fd_sc_hd__and3_1
*CAP
1 *568:D 0.000292461
2 *521:X 0.000292461
3 *568:D *520:B 1.33293e-05
4 *568:D *107:6 8.8266e-05
5 *568:D *154:53 5.42473e-05
*RES
1 *521:X *568:D 11.355 
*END

*D_NET *31 0.00120737
*CONN
*I *569:D I *D sky130_fd_sc_hd__dfrtp_1
*I *524:Y O *D sky130_fd_sc_hd__a21oi_1
*CAP
1 *569:D 0.00027614
2 *524:Y 0.00027614
3 *569:D *505:A 0.00015046
4 *569:D *505:C 5.72091e-05
5 *569:D *524:A2 0
6 *569:D *531:C1 4.66108e-05
7 *569:D *569:CLK 7.45881e-05
8 *569:D *594:A 4.11025e-05
9 *569:D *109:50 7.30547e-05
10 *569:D *128:34 2.49909e-05
11 *569:D *137:10 5.39961e-05
12 *569:D *137:23 0.000133075
13 *569:D *181:34 0
*RES
1 *524:Y *569:D 14.385 
*END

*D_NET *32 0.000936495
*CONN
*I *570:D I *D sky130_fd_sc_hd__dfrtp_1
*I *527:Y O *D sky130_fd_sc_hd__nor2_1
*CAP
1 *570:D 0.000227222
2 *527:Y 0.000227222
3 *570:D *527:A 0.000183057
4 *570:D *570:RESET_B 5.65627e-05
5 *570:D *128:14 4.92096e-05
6 *570:D *138:12 9.81013e-05
7 *570:D *139:16 9.51192e-05
8 *570:D *153:25 0
*RES
1 *527:Y *570:D 12.795 
*END

*D_NET *33 0.000836669
*CONN
*I *571:D I *D sky130_fd_sc_hd__dfrtp_1
*I *529:X O *D sky130_fd_sc_hd__o21ba_1
*CAP
1 *571:D 0.000284708
2 *529:X 0.000284708
3 *571:D *529:A2 2.78732e-05
4 *571:D *529:B1_N 1.7396e-05
5 *571:D *570:CLK 0.000123225
6 *571:D *580:D 0
7 *571:D *142:58 9.57888e-05
8 *571:D *142:60 2.97004e-06
9 *571:D *154:64 0
*RES
1 *529:X *571:D 12.78 
*END

*D_NET *34 0.000207136
*CONN
*I *561:RESET_B I *D sky130_fd_sc_hd__dfrtp_2
*I *473:Y O *D sky130_fd_sc_hd__inv_2
*CAP
1 *561:RESET_B 2.80288e-05
2 *473:Y 2.80288e-05
3 *561:D *561:RESET_B 9.71067e-05
4 *592:A *561:RESET_B 5.39718e-05
*RES
1 *473:Y *561:RESET_B 6.725 
*END

*D_NET *35 0.000836215
*CONN
*I *562:RESET_B I *D sky130_fd_sc_hd__dfrtp_1
*I *546:Y O *D sky130_fd_sc_hd__inv_2
*CAP
1 *562:RESET_B 0.000278836
2 *546:Y 0.000278836
3 *562:RESET_B *469:A 0
4 *562:D *562:RESET_B 0.000197792
5 *634:A *562:RESET_B 8.07512e-05
*RES
1 *546:Y *562:RESET_B 11.2175 
*END

*D_NET *36 0.000244137
*CONN
*I *563:RESET_B I *D sky130_fd_sc_hd__dfrtp_1
*I *547:Y O *D sky130_fd_sc_hd__inv_2
*CAP
1 *563:RESET_B 4.47259e-05
2 *547:Y 4.47259e-05
3 *563:RESET_B *509:B 0
4 *563:RESET_B *151:14 0.000117825
5 *563:D *563:RESET_B 3.68596e-05
*RES
1 *547:Y *563:RESET_B 6.98 
*END

*D_NET *37 0.000584169
*CONN
*I *564:RESET_B I *D sky130_fd_sc_hd__dfrtp_1
*I *548:Y O *D sky130_fd_sc_hd__inv_2
*CAP
1 *564:RESET_B 0.000145432
2 *548:Y 0.000145432
3 *564:RESET_B *502:A 2.10214e-05
4 *564:RESET_B *510:B 4.77719e-05
5 *564:RESET_B *94:20 0.000152211
6 *564:RESET_B *95:10 4.89295e-05
7 *564:RESET_B *151:31 2.33708e-05
*RES
1 *548:Y *564:RESET_B 4.4125 
*END

*D_NET *38 0.00101108
*CONN
*I *565:RESET_B I *D sky130_fd_sc_hd__dfrtp_1
*I *549:Y O *D sky130_fd_sc_hd__inv_2
*CAP
1 *565:RESET_B 0.000128096
2 *549:Y 0.000128096
3 *565:RESET_B *493:S 0.000419588
4 *565:RESET_B *549:A 0.00015896
5 *565:RESET_B *608:A 2.59926e-05
6 *565:D *565:RESET_B 0.000150348
*RES
1 *549:Y *565:RESET_B 6.1375 
*END

*D_NET *39 0.000368368
*CONN
*I *566:RESET_B I *D sky130_fd_sc_hd__dfrtp_1
*I *550:Y O *D sky130_fd_sc_hd__inv_2
*CAP
1 *566:RESET_B 9.56651e-05
2 *550:Y 9.56651e-05
3 *566:RESET_B *521:A 4.11729e-05
4 *566:RESET_B *567:RESET_B 0.00011379
5 *566:RESET_B *105:25 2.20753e-05
*RES
1 *550:Y *566:RESET_B 7.3775 
*END

*D_NET *40 0.00150953
*CONN
*I *567:RESET_B I *D sky130_fd_sc_hd__dfrtp_1
*I *551:Y O *D sky130_fd_sc_hd__inv_2
*CAP
1 *567:RESET_B 0.000259297
2 *551:Y 0.000259297
3 *567:RESET_B *470:A 0
4 *567:RESET_B *504:B 7.23533e-05
5 *567:RESET_B *518:A1 2.54807e-05
6 *567:RESET_B *518:B1 0.000182349
7 *567:RESET_B *551:A 3.83041e-05
8 *567:RESET_B *105:10 9.30717e-05
9 *567:RESET_B *134:45 9.68185e-05
10 *567:RESET_B *135:12 0.00018305
11 *567:RESET_B *151:50 8.65961e-05
12 *567:RESET_B *154:53 9.91257e-05
13 *566:RESET_B *567:RESET_B 0.00011379
14 *592:A *567:RESET_B 0
*RES
1 *551:Y *567:RESET_B 13.31 
*END

*D_NET *41 0.000637305
*CONN
*I *568:RESET_B I *D sky130_fd_sc_hd__dfrtp_1
*I *552:Y O *D sky130_fd_sc_hd__inv_2
*CAP
1 *568:RESET_B 0.000225976
2 *552:Y 0.000225976
3 *568:RESET_B *568:CLK 8.23457e-05
4 *568:RESET_B *154:53 0.000103008
*RES
1 *552:Y *568:RESET_B 5.4625 
*END

*D_NET *42 0.000371644
*CONN
*I *569:RESET_B I *D sky130_fd_sc_hd__dfrtp_1
*I *553:Y O *D sky130_fd_sc_hd__inv_2
*CAP
1 *569:RESET_B 9.01163e-05
2 *553:Y 9.01163e-05
3 *569:RESET_B *137:10 0.000159045
4 *569:RESET_B *153:14 3.23663e-05
*RES
1 *553:Y *569:RESET_B 3.7225 
*END

*D_NET *43 0.000714191
*CONN
*I *570:RESET_B I *D sky130_fd_sc_hd__dfrtp_1
*I *554:Y O *D sky130_fd_sc_hd__inv_2
*CAP
1 *570:RESET_B 0.000197421
2 *554:Y 0.000197421
3 *570:RESET_B *527:A 0.000185411
4 *570:RESET_B *554:A 1.08758e-05
5 *570:RESET_B *571:RESET_B 6.64979e-05
6 *570:RESET_B *153:25 0
7 *570:D *570:RESET_B 5.65627e-05
*RES
1 *554:Y *570:RESET_B 9.98 
*END

*D_NET *44 0.0010542
*CONN
*I *571:RESET_B I *D sky130_fd_sc_hd__dfrtp_1
*I *555:Y O *D sky130_fd_sc_hd__inv_2
*CAP
1 *571:RESET_B 0.000485158
2 *555:Y 0.000485158
3 *571:RESET_B *139:16 1.7386e-05
4 *571:RESET_B *153:25 0
5 *570:RESET_B *571:RESET_B 6.64979e-05
*RES
1 *555:Y *571:RESET_B 13.6925 
*END

*D_NET *45 0.000340555
*CONN
*I *572:RESET_B I *D sky130_fd_sc_hd__dfrtp_1
*I *556:Y O *D sky130_fd_sc_hd__inv_2
*CAP
1 *572:RESET_B 3.99645e-05
2 *556:Y 3.99645e-05
3 *572:RESET_B *580:D 0.000166346
4 *572:RESET_B *153:61 9.428e-05
*RES
1 *556:Y *572:RESET_B 7.49 
*END

*D_NET *46 0.000423181
*CONN
*I *573:RESET_B I *D sky130_fd_sc_hd__dfrtp_1
*I *557:Y O *D sky130_fd_sc_hd__inv_2
*CAP
1 *573:RESET_B 8.37407e-05
2 *557:Y 8.37407e-05
3 *573:RESET_B *129:8 0.000122331
4 *573:RESET_B *142:31 0.000133369
*RES
1 *557:Y *573:RESET_B 3.7225 
*END

*D_NET *47 0.000577431
*CONN
*I *574:RESET_B I *D sky130_fd_sc_hd__dfrtp_1
*I *558:Y O *D sky130_fd_sc_hd__inv_2
*CAP
1 *574:RESET_B 0.000288716
2 *558:Y 0.000288716
*RES
1 *558:Y *574:RESET_B 5.4475 
*END

*D_NET *48 0.000393518
*CONN
*I *575:SET_B I *D sky130_fd_sc_hd__dfstp_1
*I *559:Y O *D sky130_fd_sc_hd__inv_2
*CAP
1 *575:SET_B 0.000156953
2 *559:Y 0.000156953
3 *575:SET_B *559:A 2.75145e-05
4 *575:SET_B *560:A 5.20968e-05
*RES
1 *559:Y *575:SET_B 7.865 
*END

*D_NET *49 0.000269894
*CONN
*I *576:RESET_B I *D sky130_fd_sc_hd__dfrtp_1
*I *560:Y O *D sky130_fd_sc_hd__inv_2
*CAP
1 *576:RESET_B 0.000134947
2 *560:Y 0.000134947
*RES
1 *560:Y *576:RESET_B 3.3775 
*END

*D_NET *50 0.00109716
*CONN
*I *577:RESET_B I *D sky130_fd_sc_hd__dfrtp_1
*I *451:Y O *D sky130_fd_sc_hd__inv_2
*CAP
1 *577:RESET_B 0.000349337
2 *451:Y 0.000349337
3 *577:RESET_B *467:A 4.43871e-06
4 *577:RESET_B *499:B1 9.28188e-05
5 *577:RESET_B *617:A 0.000168359
6 *577:RESET_B *78:8 8.07616e-05
7 *576:D *577:RESET_B 5.21046e-05
*RES
1 *451:Y *577:RESET_B 12.1925 
*END

*D_NET *51 0.000943298
*CONN
*I *578:RESET_B I *D sky130_fd_sc_hd__dfrtp_1
*I *452:Y O *D sky130_fd_sc_hd__inv_2
*CAP
1 *578:RESET_B 0.000232727
2 *452:Y 0.000232727
3 *578:RESET_B *494:A0 0.000241483
4 *578:RESET_B *494:A1 0.000122251
5 *578:RESET_B *495:C 8.65961e-05
6 *578:RESET_B *612:A 2.75145e-05
*RES
1 *452:Y *578:RESET_B 6.4825 
*END

*D_NET *52 0.00030405
*CONN
*I *579:RESET_B I *D sky130_fd_sc_hd__dfrtp_1
*I *453:Y O *D sky130_fd_sc_hd__inv_2
*CAP
1 *579:RESET_B 9.94804e-05
2 *453:Y 9.94804e-05
3 *579:RESET_B *453:A 9.17602e-05
4 *579:RESET_B *635:A 1.33293e-05
*RES
1 *453:Y *579:RESET_B 3.3775 
*END

*D_NET *53 0.000227715
*CONN
*I *580:SET_B I *D sky130_fd_sc_hd__dfstp_1
*I *454:Y O *D sky130_fd_sc_hd__inv_2
*CAP
1 *580:SET_B 0.000109522
2 *454:Y 0.000109522
3 *580:SET_B *636:A 0
4 tx *580:SET_B 8.66976e-06
*RES
1 *454:Y *580:SET_B 7.49 
*END

*D_NET *54 0.000292501
*CONN
*I *581:RESET_B I *D sky130_fd_sc_hd__dfrtp_1
*I *455:Y O *D sky130_fd_sc_hd__inv_2
*CAP
1 *581:RESET_B 0.000121877
2 *455:Y 0.000121877
3 *581:RESET_B *561:CLK 4.87479e-05
*RES
1 *455:Y *581:RESET_B 7.4675 
*END

*D_NET *55 0.000456166
*CONN
*I *582:RESET_B I *D sky130_fd_sc_hd__dfrtp_1
*I *456:Y O *D sky130_fd_sc_hd__inv_2
*CAP
1 *582:RESET_B 0.000122308
2 *456:Y 0.000122308
3 *582:RESET_B *456:A 1.83847e-05
4 *582:RESET_B *581:CLK 0.000116853
5 *582:RESET_B *581:D 0
6 *582:RESET_B *151:71 7.63125e-05
*RES
1 *456:Y *582:RESET_B 8.03 
*END

*D_NET *56 0.000869623
*CONN
*I *583:RESET_B I *D sky130_fd_sc_hd__dfrtp_1
*I *457:Y O *D sky130_fd_sc_hd__inv_2
*CAP
1 *583:RESET_B 0.000271865
2 *457:Y 0.000271865
3 *583:RESET_B *457:A 4.77757e-05
4 *583:RESET_B *620:A 0.000278117
*RES
1 *457:Y *583:RESET_B 6.1375 
*END

*D_NET *57 0.000798743
*CONN
*I *584:RESET_B I *D sky130_fd_sc_hd__dfrtp_1
*I *458:Y O *D sky130_fd_sc_hd__inv_2
*CAP
1 *584:RESET_B 0.000292301
2 *458:Y 0.000292301
3 *584:RESET_B *541:A_N 9.05299e-05
4 *584:RESET_B *541:B 2.97004e-06
5 *584:RESET_B *543:C1 0
6 *584:RESET_B *150:18 0
7 *584:RESET_B *152:23 1.68868e-05
8 *584:RESET_B *152:38 5.75799e-05
9 *584:RESET_B *152:58 0
10 *584:RESET_B *188:12 4.61744e-05
*RES
1 *458:Y *584:RESET_B 10.6475 
*END

*D_NET *58 0.000735503
*CONN
*I *585:RESET_B I *D sky130_fd_sc_hd__dfrtp_1
*I *459:Y O *D sky130_fd_sc_hd__inv_2
*CAP
1 *585:RESET_B 0.000335372
2 *459:Y 0.000335372
3 *585:RESET_B *489:A0 0
4 *585:RESET_B *489:A1 0
5 *585:RESET_B *539:A2 0
6 *585:RESET_B *623:A 0
7 *585:RESET_B *143:20 0
8 *585:RESET_B *150:14 0
9 *585:RESET_B *152:58 0
10 *585:RESET_B *190:10 6.47594e-05
*RES
1 *459:Y *585:RESET_B 11.315 
*END

*D_NET *59 0.000807079
*CONN
*I *586:RESET_B I *D sky130_fd_sc_hd__dfrtp_1
*I *460:Y O *D sky130_fd_sc_hd__inv_2
*CAP
1 *586:RESET_B 0.000256193
2 *460:Y 0.000256193
3 *586:RESET_B *460:A 0.000134938
4 *586:RESET_B *488:A0 6.73578e-05
5 *586:RESET_B *91:64 9.23971e-05
*RES
1 *460:Y *586:RESET_B 10.01 
*END

*D_NET *60 0.000328808
*CONN
*I *587:RESET_B I *D sky130_fd_sc_hd__dfrtp_1
*I *461:Y O *D sky130_fd_sc_hd__inv_2
*CAP
1 *587:RESET_B 8.49207e-05
2 *461:Y 8.49207e-05
3 *587:RESET_B *152:81 0.000111194
4 *587:RESET_B *191:8 4.77719e-05
*RES
1 *461:Y *587:RESET_B 3.3775 
*END

*D_NET *61 0.000436124
*CONN
*I *588:RESET_B I *D sky130_fd_sc_hd__dfrtp_1
*I *462:Y O *D sky130_fd_sc_hd__inv_2
*CAP
1 *588:RESET_B 0.000218062
2 *462:Y 0.000218062
3 *588:RESET_B *462:A 0
4 *588:RESET_B *587:D 0
5 *588:RESET_B *91:64 0
*RES
1 *462:Y *588:RESET_B 9.02 
*END

*D_NET *62 0.000278131
*CONN
*I *589:RESET_B I *D sky130_fd_sc_hd__dfrtp_1
*I *463:Y O *D sky130_fd_sc_hd__inv_2
*CAP
1 *589:RESET_B 9.93808e-05
2 *463:Y 9.93808e-05
3 *589:RESET_B *463:A 7.00889e-06
4 *589:RESET_B *499:B2 0
5 *589:RESET_B *589:D 0
6 *589:RESET_B *601:A 7.23602e-05
*RES
1 *463:Y *589:RESET_B 7.175 
*END

*D_NET *63 0.000414939
*CONN
*I *590:RESET_B I *D sky130_fd_sc_hd__dfrtp_1
*I *464:Y O *D sky130_fd_sc_hd__inv_2
*CAP
1 *590:RESET_B 0.000158944
2 *464:Y 0.000158944
3 *590:RESET_B *545:A3 0
4 *590:RESET_B *558:A 3.72916e-05
5 *590:RESET_B *126:10 0
6 *590:RESET_B *149:26 4.04613e-05
7 *590:RESET_B *149:61 1.92984e-05
*RES
1 *464:Y *590:RESET_B 8.285 
*END

*D_NET *64 0.00101269
*CONN
*I *591:RESET_B I *D sky130_fd_sc_hd__dfrtp_1
*I *465:Y O *D sky130_fd_sc_hd__inv_2
*CAP
1 *591:RESET_B 0.000287092
2 *465:Y 0.000287092
3 *591:RESET_B *591:CLK 0.000127564
4 *591:RESET_B *126:33 0.000114492
5 *591:RESET_B *140:38 0
6 *591:RESET_B *184:6 0.000115608
7 *591:RESET_B *193:26 8.08429e-05
*RES
1 *465:Y *591:RESET_B 10.8875 
*END

*D_NET *65 0.000373148
*CONN
*I *579:D I *D sky130_fd_sc_hd__dfrtp_1
*I *495:X O *D sky130_fd_sc_hd__or3_1
*CAP
1 *579:D 0.000139608
2 *495:X 0.000139608
3 *579:D *495:C 4.16353e-05
4 *579:D *579:CLK 5.22973e-05
*RES
1 *495:X *579:D 5.045 
*END

*D_NET *66 0.00143759
*CONN
*I *581:D I *D sky130_fd_sc_hd__dfrtp_1
*I *493:X O *D sky130_fd_sc_hd__mux2_1
*CAP
1 *581:D 0.000481689
2 *493:X 0.000481689
3 *581:D *581:CLK 6.73751e-05
4 *581:D *603:A 8.53113e-06
5 *581:D *151:71 0
6 *581:D *152:8 0
7 *581:D *181:32 0.000279787
8 *581:D *186:14 0.00011852
9 *582:RESET_B *581:D 0