*SPEF "ieee 1481-1999"
*DESIGN "top"
*DATE "20:56:54 Thursday February 05, 2026"
*VENDOR "The OpenROAD Project"
*PROGRAM "OpenROAD"
*VERSION "edf00dff99f6c40d67a30c0e22a8191c5d2ed9d6"
*DESIGN_FLOW "NAME_SCOPE LOCAL" "PIN_CAP NONE"
*DIVIDER /
*DELIMITER :
*BUS_DELIMITER []
*T_UNIT 1 NS
*C_UNIT 1 PF
*R_UNIT 1 OHM
*L_UNIT 1 HENRY

*NAME_MAP
*3 busy
*4 clk
*5 data_in[0]
*6 data_in[1]
*7 data_in[2]
*8 data_in[3]
*9 data_in[4]
*10 data_in[5]
*11 data_in[6]
*12 data_in[7]
*13 en
*14 rst
*15 tx
*16 _000_
*17 _001_
*18 _002_
*19 _003_
*20 _004_
*21 _005_
*22 _006_
*23 _007_
*24 _008_
*25 _009_
*26 _010_
*27 _011_
*28 _012_
*29 _013_
*30 _014_
*31 _015_
*32 _016_
*33 _017_
*34 _018_
*35 _019_
*36 _020_
*37 _021_
*38 _022_
*39 _023_
*40 _024_
*41 _025_
*42 _026_
*43 _027_
*44 _028_
*45 _029_
*46 _030_
*47 _031_
*48 _032_
*49 _033_
*50 _034_
*51 _035_
*52 _036_
*53 _037_
*54 _038_
*55 _039_
*56 _040_
*57 _041_
*58 _042_
*59 _043_
*60 _044_
*61 _045_
*62 _046_
*63 _047_
*64 _048_
*65 _049_
*66 _050_
*67 _051_
*68 _052_
*69 _053_
*70 _054_
*71 _055_
*72 _056_
*73 _057_
*74 _058_
*75 _059_
*76 _060_
*77 _061_
*78 _062_
*79 _063_
*80 _064_
*81 _065_
*82 _066_
*83 _067_
*84 _068_
*85 _069_
*86 _070_
*87 _071_
*88 _072_
*89 _073_
*90 _074_
*91 _075_
*92 _076_
*93 _077_
*94 _078_
*95 _079_
*96 _080_
*97 _081_
*98 _082_
*99 _083_
*100 _084_
*101 _085_
*102 _086_
*103 _087_
*104 _088_
*105 _089_
*106 _090_
*107 _091_
*108 _092_
*109 _093_
*110 _094_
*111 _095_
*112 _096_
*113 _097_
*114 _098_
*115 _099_
*116 _100_
*117 _101_
*118 _102_
*119 _103_
*120 _104_
*121 _105_
*122 _106_
*123 _107_
*124 _108_
*125 _109_
*126 baud_inst\.baud_tick
*127 baud_inst\.cnt\[0\]
*128 baud_inst\.cnt\[10\]
*129 baud_inst\.cnt\[11\]
*130 baud_inst\.cnt\[12\]
*131 baud_inst\.cnt\[1\]
*132 baud_inst\.cnt\[2\]
*133 baud_inst\.cnt\[3\]
*134 baud_inst\.cnt\[4\]
*135 baud_inst\.cnt\[5\]
*136 baud_inst\.cnt\[6\]
*137 baud_inst\.cnt\[7\]
*138 baud_inst\.cnt\[8\]
*139 baud_inst\.cnt\[9\]
*140 clknet_0_clk
*141 clknet_2_0__leaf_clk
*142 clknet_2_1__leaf_clk
*143 clknet_2_2__leaf_clk
*144 clknet_2_3__leaf_clk
*145 net1
*146 net10
*147 net11
*148 net12
*149 net13
*150 net14
*151 net15
*152 net16
*153 net17
*154 net18
*155 net19
*156 net2
*157 net20
*158 net21
*159 net22
*160 net23
*161 net24
*162 net25
*163 net26
*164 net27
*165 net28
*166 net29
*167 net3
*168 net30
*169 net31
*170 net32
*171 net33
*172 net34
*173 net35
*174 net36
*175 net37
*176 net38
*177 net4
*178 net5
*179 net6
*180 net7
*181 net8
*182 net9
*183 uart_tx_inst\.cnt\[0\]
*184 uart_tx_inst\.cnt\[1\]
*185 uart_tx_inst\.cnt\[2\]
*186 uart_tx_inst\.data_reg\[0\]
*187 uart_tx_inst\.data_reg\[1\]
*188 uart_tx_inst\.data_reg\[2\]
*189 uart_tx_inst\.data_reg\[3\]
*190 uart_tx_inst\.data_reg\[4\]
*191 uart_tx_inst\.data_reg\[5\]
*192 uart_tx_inst\.data_reg\[6\]
*193 uart_tx_inst\.data_reg\[7\]
*194 uart_tx_inst\.state\[0\]
*195 uart_tx_inst\.state\[1\]
*196 uart_tx_inst\.state\[2\]
*197 uart_tx_inst\.state\[3\]
*198 FILLER_0_109
*199 FILLER_0_113
*200 FILLER_0_119
*201 FILLER_0_13
*202 FILLER_0_17
*203 FILLER_0_25
*204 FILLER_0_36
*205 FILLER_0_48
*206 FILLER_0_57
*207 FILLER_0_6
*208 FILLER_0_69
*209 FILLER_0_76
*210 FILLER_0_85
*211 FILLER_0_97
*212 FILLER_10_111
*213 FILLER_10_119
*214 FILLER_10_15
*215 FILLER_10_3
*216 FILLER_10_39
*217 FILLER_10_45
*218 FILLER_10_49
*219 FILLER_10_53
*220 FILLER_10_74
*221 FILLER_10_82
*222 FILLER_10_85
*223 FILLER_11_102
*224 FILLER_11_110
*225 FILLER_11_113
*226 FILLER_11_119
*227 FILLER_11_23
*228 FILLER_11_33
*229 FILLER_11_55
*230 FILLER_11_57
*231 FILLER_11_70
*232 FILLER_11_82
*233 FILLER_11_86
*234 FILLER_11_90
*235 FILLER_12_10
*236 FILLER_12_106
*237 FILLER_12_118
*238 FILLER_12_26
*239 FILLER_12_50
*240 FILLER_12_6
*241 FILLER_12_77
*242 FILLER_12_83
*243 FILLER_13_108
*244 FILLER_13_113
*245 FILLER_13_119
*246 FILLER_13_3
*247 FILLER_13_42
*248 FILLER_14_112
*249 FILLER_14_14
*250 FILLER_14_18
*251 FILLER_14_26
*252 FILLER_14_49
*253 FILLER_14_58
*254 FILLER_14_6
*255 FILLER_14_64
*256 FILLER_14_76
*257 FILLER_15_113
*258 FILLER_15_119
*259 FILLER_15_3
*260 FILLER_15_44
*261 FILLER_15_52
*262 FILLER_16_109
*263 FILLER_16_117
*264 FILLER_16_23
*265 FILLER_16_27
*266 FILLER_16_44
*267 FILLER_16_63
*268 FILLER_16_83
*269 FILLER_16_85
*270 FILLER_16_97
*271 FILLER_17_105
*272 FILLER_17_111
*273 FILLER_17_113
*274 FILLER_17_119
*275 FILLER_17_25
*276 FILLER_17_3
*277 FILLER_17_35
*278 FILLER_17_69
*279 FILLER_17_93
*280 FILLER_18_109
*281 FILLER_18_115
*282 FILLER_18_18
*283 FILLER_18_27
*284 FILLER_18_52
*285 FILLER_18_6
*286 FILLER_18_76
*287 FILLER_18_85
*288 FILLER_18_97
*289 FILLER_19_109
*290 FILLER_19_113
*291 FILLER_19_119
*292 FILLER_19_17
*293 FILLER_19_21
*294 FILLER_19_27
*295 FILLER_19_29
*296 FILLER_19_37
*297 FILLER_19_47
*298 FILLER_19_55
*299 FILLER_19_57
*300 FILLER_19_69
*301 FILLER_19_81
*302 FILLER_19_85
*303 FILLER_19_9
*304 FILLER_19_97
*305 FILLER_1_104
*306 FILLER_1_113
*307 FILLER_1_119
*308 FILLER_1_16
*309 FILLER_1_20
*310 FILLER_1_53
*311 FILLER_1_67
*312 FILLER_1_92
*313 FILLER_2_105
*314 FILLER_2_117
*315 FILLER_2_3
*316 FILLER_2_45
*317 FILLER_2_77
*318 FILLER_3_73
*319 FILLER_4_10
*320 FILLER_4_111
*321 FILLER_4_119
*322 FILLER_4_17
*323 FILLER_4_38
*324 FILLER_4_6
*325 FILLER_4_65
*326 FILLER_4_79
*327 FILLER_4_89
*328 FILLER_4_99
*329 FILLER_5_105
*330 FILLER_5_111
*331 FILLER_5_113
*332 FILLER_5_119
*333 FILLER_5_15
*334 FILLER_5_23
*335 FILLER_5_3
*336 FILLER_5_55
*337 FILLER_5_57
*338 FILLER_5_69
*339 FILLER_6_119
*340 FILLER_6_23
*341 FILLER_6_27
*342 FILLER_6_52
*343 FILLER_6_60
*344 FILLER_6_65
*345 FILLER_6_77
*346 FILLER_6_85
*347 FILLER_7_116
*348 FILLER_7_18
*349 FILLER_7_52
*350 FILLER_7_82
*351 FILLER_8_117
*352 FILLER_8_3
*353 FILLER_8_37
*354 FILLER_9_106
*355 FILLER_9_113
*356 FILLER_9_119
*357 FILLER_9_18
*358 FILLER_9_34
*359 FILLER_9_46
*360 FILLER_9_54
*361 FILLER_9_57
*362 FILLER_9_6
*363 FILLER_9_69
*364 FILLER_9_75
*365 FILLER_9_79
*366 PHY_EDGE_ROW_0_Left_20
*367 PHY_EDGE_ROW_0_Right_0
*368 PHY_EDGE_ROW_10_Left_30
*369 PHY_EDGE_ROW_10_Right_10
*370 PHY_EDGE_ROW_11_Left_31
*371 PHY_EDGE_ROW_11_Right_11
*372 PHY_EDGE_ROW_12_Left_32
*373 PHY_EDGE_ROW_12_Right_12
*374 PHY_EDGE_ROW_13_Left_33
*375 PHY_EDGE_ROW_13_Right_13
*376 PHY_EDGE_ROW_14_Left_34
*377 PHY_EDGE_ROW_14_Right_14
*378 PHY_EDGE_ROW_15_Left_35
*379 PHY_EDGE_ROW_15_Right_15
*380 PHY_EDGE_ROW_16_Left_36
*381 PHY_EDGE_ROW_16_Right_16
*382 PHY_EDGE_ROW_17_Left_37
*383 PHY_EDGE_ROW_17_Right_17
*384 PHY_EDGE_ROW_18_Left_38
*385 PHY_EDGE_ROW_18_Right_18
*386 PHY_EDGE_ROW_19_Left_39
*387 PHY_EDGE_ROW_19_Right_19
*388 PHY_EDGE_ROW_1_Left_21
*389 PHY_EDGE_ROW_1_Right_1
*390 PHY_EDGE_ROW_2_Left_22
*391 PHY_EDGE_ROW_2_Right_2
*392 PHY_EDGE_ROW_3_Left_23
*393 PHY_EDGE_ROW_3_Right_3
*394 PHY_EDGE_ROW_4_Left_24
*395 PHY_EDGE_ROW_4_Right_4
*396 PHY_EDGE_ROW_5_Left_25
*397 PHY_EDGE_ROW_5_Right_5
*398 PHY_EDGE_ROW_6_Left_26
*399 PHY_EDGE_ROW_6_Right_6
*400 PHY_EDGE_ROW_7_Left_27
*401 PHY_EDGE_ROW_7_Right_7
*402 PHY_EDGE_ROW_8_Left_28
*403 PHY_EDGE_ROW_8_Right_8
*404 PHY_EDGE_ROW_9_Left_29
*405 PHY_EDGE_ROW_9_Right_9
*406 TAP_TAPCELL_ROW_0_40
*407 TAP_TAPCELL_ROW_0_41
*408 TAP_TAPCELL_ROW_0_42
*409 TAP_TAPCELL_ROW_0_43
*410 TAP_TAPCELL_ROW_10_62
*411 TAP_TAPCELL_ROW_10_63
*412 TAP_TAPCELL_ROW_11_64
*413 TAP_TAPCELL_ROW_11_65
*414 TAP_TAPCELL_ROW_12_66
*415 TAP_TAPCELL_ROW_12_67
*416 TAP_TAPCELL_ROW_13_68
*417 TAP_TAPCELL_ROW_13_69
*418 TAP_TAPCELL_ROW_14_70
*419 TAP_TAPCELL_ROW_14_71
*420 TAP_TAPCELL_ROW_15_72
*421 TAP_TAPCELL_ROW_15_73
*422 TAP_TAPCELL_ROW_16_74
*423 TAP_TAPCELL_ROW_16_75
*424 TAP_TAPCELL_ROW_17_76
*425 TAP_TAPCELL_ROW_17_77
*426 TAP_TAPCELL_ROW_18_78
*427 TAP_TAPCELL_ROW_18_79
*428 TAP_TAPCELL_ROW_19_80
*429 TAP_TAPCELL_ROW_19_81
*430 TAP_TAPCELL_ROW_19_82
*431 TAP_TAPCELL_ROW_19_83
*432 TAP_TAPCELL_ROW_1_44
*433 TAP_TAPCELL_ROW_1_45
*434 TAP_TAPCELL_ROW_2_46
*435 TAP_TAPCELL_ROW_2_47
*436 TAP_TAPCELL_ROW_3_48
*437 TAP_TAPCELL_ROW_3_49
*438 TAP_TAPCELL_ROW_4_50
*439 TAP_TAPCELL_ROW_4_51
*440 TAP_TAPCELL_ROW_5_52
*441 TAP_TAPCELL_ROW_5_53
*442 TAP_TAPCELL_ROW_6_54
*443 TAP_TAPCELL_ROW_6_55
*444 TAP_TAPCELL_ROW_7_56
*445 TAP_TAPCELL_ROW_7_57
*446 TAP_TAPCELL_ROW_8_58
*447 TAP_TAPCELL_ROW_8_59
*448 TAP_TAPCELL_ROW_9_60
*449 TAP_TAPCELL_ROW_9_61
*450 _110_
*451 _111_
*452 _112_
*453 _113_
*454 _114_
*455 _115_
*456 _116_
*457 _117_
*458 _118_
*459 _119_
*460 _120_
*461 _121_
*462 _122_
*463 _123_
*464 _124_
*465 _125_
*466 _126_
*467 _127_
*468 _128_
*469 _129_
*470 _130_
*471 _131_
*472 _132_
*473 _133_
*474 _134_
*475 _135_
*476 _136_
*477 _137_
*478 _138_
*479 _139_
*480 _140_
*481 _141_
*482 _142_
*483 _143_
*484 _144_
*485 _145_
*486 _146_
*487 _147_
*488 _148_
*489 _149_
*490 _150_
*491 _151_
*492 _152_
*493 _153_
*494 _154_
*495 _155_
*496 _156_
*497 _157_
*498 _158_
*499 _159_
*500 _160_
*501 _161_
*502 _162_
*503 _163_
*504 _164_
*505 _165_
*506 _166_
*507 _167_
*508 _168_
*509 _169_
*510 _170_
*511 _171_
*512 _172_
*513 _173_
*514 _174_
*515 _175_
*516 _176_
*517 _177_
*518 _178_
*519 _179_
*520 _180_
*521 _181_
*522 _182_
*523 _183_
*524 _184_
*525 _185_
*526 _186_
*527 _187_
*528 _188_
*529 _189_
*530 _190_
*531 _191_
*532 _192_
*533 _193_
*534 _194_
*535 _195_
*536 _196_
*537 _197_
*538 _198_
*539 _199_
*540 _200_
*541 _201_
*542 _202_
*543 _203_
*544 _204_
*545 _205_
*546 _206_
*547 _207_
*548 _208_
*549 _209_
*550 _210_
*551 _211_
*552 _212_
*553 _213_
*554 _214_
*555 _215_
*556 _216_
*557 _217_
*558 _218_
*559 _219_
*560 _220_
*561 _221_
*562 _222_
*563 _223_
*564 _224_
*565 _225_
*566 _226_
*567 _227_
*568 _228_
*569 _229_
*570 _230_
*571 _231_
*572 _232_
*573 _233_
*574 _234_
*575 _235_
*576 _236_
*577 _237_
*578 _238_
*579 _239_
*580 _240_
*581 _241_
*582 _242_
*583 _243_
*584 _244_
*585 _245_
*586 _246_
*587 _247_
*588 _248_
*589 _249_
*590 _250_
*591 clkbuf_0_clk
*592 clkbuf_2_0__f_clk
*593 clkbuf_2_1__f_clk
*594 clkbuf_2_2__f_clk
*595 clkbuf_2_3__f_clk
*596 clkload0
*597 clkload1
*598 clkload2
*599 fanout13
*600 fanout14
*601 fanout15
*602 fanout16
*603 fanout17
*604 fanout18
*605 hold1
*606 hold10
*607 hold11
*608 hold12
*609 hold13
*610 hold14
*611 hold15
*612 hold16
*613 hold17
*614 hold18
*615 hold19
*616 hold2
*617 hold20
*618 hold3
*619 hold4
*620 hold5
*621 hold6
*622 hold7
*623 hold8
*624 hold9
*625 input1
*626 input10
*627 input2
*628 input3
*629 input4
*630 input5
*631 input6
*632 input7
*633 input8
*634 input9
*635 output11
*636 output12

*PORTS
busy O
clk I
data_in[0] I
data_in[1] I
data_in[2] I
data_in[3] I
data_in[4] I
data_in[5] I
data_in[6] I
data_in[7] I
en I
rst I
tx O

*D_NET *3 0.000637734
*CONN
*P busy O
*I *635:X O *D sky130_fd_sc_hd__buf_2
*CAP
1 busy 0.00028613
2 *635:X 0.00028613
3 busy *147:25 6.54744e-05
*RES
1 *635:X busy 48.4875 
*END

*D_NET *4 0.00493041
*CONN
*P clk I
*I *591:A I *D sky130_fd_sc_hd__clkbuf_16
*CAP
1 clk 0.0018734
2 *591:A 0.00010039
3 *4:13 0.00197379
4 *4:13 *472:A 0
5 *4:13 *513:A 0
6 *4:13 *547:A 0
7 *4:13 *34:8 3.81391e-05
8 *4:13 *39:10 0.000163352
9 *4:13 *47:10 0
10 *4:13 *91:106 0
11 *4:13 *98:10 0
12 *4:13 *99:27 0
13 *4:13 *99:42 0
14 *4:13 *126:10 0.000131009
15 *4:13 *134:22 0
16 *4:13 *151:32 0
17 *4:13 *151:40 0.00023521
18 *4:13 *151:57 0.000415126
19 *4:13 *151:63 0
*RES
1 clk *4:13 40.4136 
2 *4:13 *591:A 39.5743 
*END

*D_NET *5 0.000625876
*CONN
*P data_in[0] I
*I *625:A I *D sky130_fd_sc_hd__clkbuf_1
*CAP
1 data_in[0] 0.000312938
2 *625:A 0.000312938
3 *625:A *6:17 0
4 *625:A *13:17 0
*RES
1 data_in[0] *625:A 49.8062 
*END

*D_NET *6 0.000793555
*CONN
*P data_in[1] I
*I *627:A I *D sky130_fd_sc_hd__clkbuf_1
*CAP
1 data_in[1] 0.00039369
2 *627:A 0
3 *6:17 0.00039369
4 *6:17 *580:CLK 6.17437e-06
5 *6:17 *582:CLK 0
6 *6:17 *7:17 0
7 *6:17 *141:42 0
8 *625:A *6:17 0
*RES
1 data_in[1] *6:17 28.567 
2 *6:17 *627:A 23 
*END

*D_NET *7 0.000650175
*CONN
*P data_in[2] I
*I *628:A I *D sky130_fd_sc_hd__clkbuf_1
*CAP
1 data_in[2] 0.000325087
2 *628:A 0
3 *7:17 0.000325087
4 *7:17 *8:17 0
5 *6:17 *7:17 0
*RES
1 data_in[2] *7:17 27.1584 
2 *7:17 *628:A 23 
*END

*D_NET *8 0.000760724
*CONN
*P data_in[3] I
*I *629:A I *D sky130_fd_sc_hd__clkbuf_1
*CAP
1 data_in[3] 0.000380362
2 *629:A 0
3 *8:17 0.000380362
4 *8:17 *630:A 0
5 *8:17 *142:56 0
6 *7:17 *8:17 0
*RES
1 data_in[3] *8:17 28.2148 
2 *8:17 *629:A 23 
*END

*D_NET *9 0.000615123
*CONN
*P data_in[4] I
*I *630:A I *D sky130_fd_sc_hd__clkbuf_1
*CAP
1 data_in[4] 0.000307562
2 *630:A 0.000307562
3 *630:A *10:17 0
4 *8:17 *630:A 0
*RES
1 data_in[4] *630:A 49.8062 
*END

*D_NET *10 0.00097756
*CONN
*P data_in[5] I
*I *631:A I *D sky130_fd_sc_hd__clkbuf_1
*CAP
1 data_in[5] 0.00048878
2 *631:A 0
3 *10:17 0.00048878
4 *10:17 *11:17 0
5 *10:17 *142:106 0
6 *10:17 *179:10 0
7 *630:A *10:17 0
*RES
1 data_in[5] *10:17 31.032 
2 *10:17 *631:A 23 
*END

*D_NET *11 0.000772058
*CONN
*P data_in[6] I
*I *632:A I *D sky130_fd_sc_hd__clkbuf_1
*CAP
1 data_in[6] 0.000270727
2 *632:A 0
3 *11:17 0.000270727
4 *11:17 *12:15 0.000230604
5 *10:17 *11:17 0
*RES
1 data_in[6] *11:17 27.1584 
2 *11:17 *632:A 23 
*END

*D_NET *12 0.00136783
*CONN
*P data_in[7] I
*I *633:A I *D sky130_fd_sc_hd__clkbuf_1
*CAP
1 data_in[7] 0.0005571
2 *633:A 0
3 *12:15 0.0005571
4 *12:15 *180:6 2.30292e-05
5 *11:17 *12:15 0.000230604
*RES
1 data_in[7] *12:15 33.3853 
2 *12:15 *633:A 23 
*END

*D_NET *13 0.000712563
*CONN
*P en I
*I *634:A I *D sky130_fd_sc_hd__clkbuf_2
*CAP
1 en 0.000356281
2 *634:A 0
3 *13:17 0.000356281
4 *13:17 *14:17 0
5 *625:A *13:17 0
*RES
1 en *13:17 27.6348 
2 *13:17 *634:A 23 
*END

*D_NET *14 0.000854158
*CONN
*P rst I
*I *626:A I *D sky130_fd_sc_hd__clkbuf_1
*CAP
1 rst 0.000427079
2 *626:A 0
3 *14:17 0.000427079
4 *13:17 *14:17 0
*RES
1 rst *14:17 29.6234 
2 *14:17 *626:A 23 
*END

*D_NET *15 0.000498606
*CONN
*P tx O
*I *636:X O *D sky130_fd_sc_hd__buf_2
*CAP
1 tx 0.000249303
2 *636:X 0.000249303
*RES
1 *636:X tx 47.0789 
*END

*D_NET *16 0.00150916
*CONN
*I *574:D I *D sky130_fd_sc_hd__dfstp_1
*I *499:X O *D sky130_fd_sc_hd__a22o_1
*CAP
1 *574:D 0
2 *499:X 0.000408793
3 *16:10 0.000408793
4 *16:10 *144:27 3.70094e-05
5 *16:10 *154:92 0.000166513
6 *16:10 *194:16 0.000488055
*RES
1 *499:X *16:10 45.6436 
2 *16:10 *574:D 38 
*END

*D_NET *17 0.000553624
*CONN
*I *575:D I *D sky130_fd_sc_hd__dfrtp_1
*I *498:X O *D sky130_fd_sc_hd__a22o_1
*CAP
1 *575:D 0
2 *498:X 0.000175288
3 *17:10 0.000175288
4 *17:10 *50:8 0
5 *17:10 *78:10 5.61255e-06
6 *17:10 *84:10 5.50049e-05
7 *17:10 *126:72 3.7122e-06
8 *17:10 *144:53 0.000138718
*RES
1 *498:X *17:10 41.0036 
2 *17:10 *575:D 38 
*END

*D_NET *18 0.000685722
*CONN
*I *576:D I *D sky130_fd_sc_hd__dfrtp_1
*I *497:X O *D sky130_fd_sc_hd__a21bo_1
*CAP
1 *576:D 6.23332e-05
2 *497:X 0.000128966
3 *18:10 0.000191299
4 *576:D *576:CLK 6.17437e-06
5 *576:D *576:RESET_B 0.000140259
6 *18:10 *497:A1 1.21972e-05
7 *18:10 *497:A2 6.17437e-06
8 *18:10 *576:CLK 2.96369e-05
9 *18:10 *157:8 0.000108681
*RES
1 *497:X *18:10 40.175 
2 *18:10 *576:D 39.5743 
*END

*D_NET *19 0.000333581
*CONN
*I *577:D I *D sky130_fd_sc_hd__dfrtp_1
*I *496:X O *D sky130_fd_sc_hd__a22o_1
*CAP
1 *577:D 0.000134245
2 *496:X 0.000134245
3 *577:D *496:A1 6.50913e-05
4 *577:D *496:B1 0
*RES
1 *496:X *577:D 48.5479 
*END

*D_NET *20 0.000520306
*CONN
*I *560:D I *D sky130_fd_sc_hd__dfrtp_2
*I *506:Y O *D sky130_fd_sc_hd__inv_2
*CAP
1 *560:D 0.00010039
2 *506:Y 0.000145075
3 *20:10 0.000245465
4 *20:10 *580:RESET_B 2.93747e-05
5 *20:10 *34:8 0
*RES
1 *506:Y *20:10 40.175 
2 *20:10 *560:D 39.5743 
*END

*D_NET *21 0.000969807
*CONN
*I *561:D I *D sky130_fd_sc_hd__dfrtp_1
*I *468:Y O *D sky130_fd_sc_hd__inv_2
*CAP
1 *561:D 0
2 *468:Y 0.000217267
3 *21:10 0.000217267
4 *21:10 *25:10 6.56301e-05
5 *21:10 *35:10 0
6 *21:10 *146:8 0.000412601
7 *21:10 *182:10 5.70419e-05
*RES
1 *468:Y *21:10 44.525 
2 *21:10 *561:D 38 
*END

*D_NET *22 0.000318492
*CONN
*I *571:D I *D sky130_fd_sc_hd__dfrtp_1
*I *530:X O *D sky130_fd_sc_hd__o211a_1
*CAP
1 *571:D 0.000136524
2 *530:X 0.000136524
3 *571:D *571:CLK 2.93845e-05
4 *571:D *114:29 9.88574e-06
5 *571:D *143:64 6.17437e-06
*RES
1 *530:X *571:D 48.0507 
*END

*D_NET *23 0.00149695
*CONN
*I *572:D I *D sky130_fd_sc_hd__dfrtp_1
*I *532:Y O *D sky130_fd_sc_hd__a22oi_1
*CAP
1 *572:D 0.000182733
2 *532:Y 0.000115906
3 *23:8 0.000298639
4 *572:D *502:B 9.88574e-06
5 *572:D *529:C 9.5877e-05
6 *572:D *129:6 3.28496e-05
7 *23:8 *532:B1 0.000381644
8 *23:8 *113:27 0.000379413
*RES
1 *532:Y *23:8 43.075 
2 *23:8 *572:D 41.0036 
*END

*D_NET *24 0.00045538
*CONN
*I *573:D I *D sky130_fd_sc_hd__dfrtp_1
*I *535:X O *D sky130_fd_sc_hd__and3_1
*CAP
1 *573:D 0.000148832
2 *535:X 0.000148832
3 *573:D *535:C 0.00014196
4 *573:D *99:65 1.57571e-05
*RES
1 *535:X *573:D 48.5479 
*END

*D_NET *25 0.00126194
*CONN
*I *562:D I *D sky130_fd_sc_hd__dfrtp_1
*I *508:Y O *D sky130_fd_sc_hd__nor2_1
*CAP
1 *562:D 0
2 *508:Y 0.000396035
3 *25:10 0.000396035
4 *25:10 *468:A 0.000394988
5 *25:10 *35:10 0
6 *25:10 *182:10 9.24795e-06
7 *21:10 *25:10 6.56301e-05
*RES
1 *508:Y *25:10 44.4629 
2 *25:10 *562:D 38 
*END

*D_NET *26 0.000668308
*CONN
*I *563:D I *D sky130_fd_sc_hd__dfrtp_1
*I *509:X O *D sky130_fd_sc_hd__xor2_1
*CAP
1 *563:D 0
2 *509:X 0.000186694
3 *26:10 0.000186694
4 *26:10 *151:32 0.000146195
5 *26:10 *159:10 0.000138718
6 *26:10 *182:18 1.00084e-05
*RES
1 *509:X *26:10 41.48 
2 *26:10 *563:D 38 
*END

*D_NET *27 0.00109881
*CONN
*I *564:D I *D sky130_fd_sc_hd__dfrtp_1
*I *511:X O *D sky130_fd_sc_hd__a21bo_1
*CAP
1 *564:D 3.66196e-05
2 *511:X 0.000382441
3 *27:8 0.000419061
4 *564:D *141:14 2.93431e-05
5 *27:8 *510:B 6.07611e-06
6 *27:8 *66:10 0
7 *27:8 *95:10 0.000112803
8 *27:8 *132:27 5.93174e-05
9 *27:8 *141:14 5.31444e-05
10 *27:8 *168:10 0
*RES
1 *511:X *27:8 45.8921 
2 *27:8 *564:D 38.6214 
*END

*D_NET *28 0.000393442
*CONN
*I *565:D I *D sky130_fd_sc_hd__dfrtp_1
*I *515:X O *D sky130_fd_sc_hd__and3_1
*CAP
1 *565:D 9.8397e-05
2 *515:X 6.4192e-05
3 *28:8 0.000162589
4 *565:D *492:S 3.71251e-05
5 *565:D *505:C 3.23857e-06
6 *28:8 *510:C_N 2.79004e-05
7 *28:8 *39:10 0
*RES
1 *515:X *28:8 39.2014 
2 *28:8 *565:D 39.595 
*END

*D_NET *29 0.00124627
*CONN
*I *566:D I *D sky130_fd_sc_hd__dfrtp_1
*I *517:Y O *D sky130_fd_sc_hd__a21oi_1
*CAP
1 *566:D 0
2 *517:Y 0.000375292
3 *29:10 0.000375292
4 *29:10 *513:A 0.000114083
5 *29:10 *515:B 0.000116314
6 *29:10 *517:A1 5.18955e-05
7 *29:10 *517:A2 0.000108373
8 *29:10 *563:RESET_B 9.75779e-05
9 *29:10 *151:36 7.44161e-06
*RES
1 *517:Y *29:10 44.4266 
2 *29:10 *566:D 38 
*END

*D_NET *30 0.000356607
*CONN
*I *567:D I *D sky130_fd_sc_hd__dfrtp_1
*I *520:X O *D sky130_fd_sc_hd__and3_1
*CAP
1 *567:D 0
2 *520:X 0.000145603
3 *30:10 0.000145603
4 *30:10 *520:A 2.30292e-05
5 *30:10 *520:C 4.23714e-05
6 *30:10 *99:42 0
*RES
1 *520:X *30:10 40.5271 
2 *30:10 *567:D 38 
*END

*D_NET *31 0.00133582
*CONN
*I *568:D I *D sky130_fd_sc_hd__dfrtp_1
*I *523:Y O *D sky130_fd_sc_hd__a21oi_1
*CAP
1 *568:D 0
2 *523:Y 0.000318735
3 *31:10 0.000318735
4 *31:10 *532:B2 6.52495e-05
5 *31:10 *597:A 2.93747e-05
6 *31:10 *81:8 0
7 *31:10 *97:10 5.67058e-05
8 *31:10 *109:16 1.32314e-05
9 *31:10 *137:20 0
10 *31:10 *143:22 7.30875e-05
11 *31:10 *143:32 4.21594e-06
12 *31:10 *153:21 0.000456486
*RES
1 *523:Y *31:10 46.6586 
2 *31:10 *568:D 38 
*END

*D_NET *32 0.00130544
*CONN
*I *569:D I *D sky130_fd_sc_hd__dfrtp_1
*I *526:Y O *D sky130_fd_sc_hd__nor2_1
*CAP
1 *569:D 0
2 *526:Y 0.000389493
3 *32:10 0.000389493
4 *32:10 *526:A 0.000440163
5 *32:10 *125:18 0
6 *32:10 *138:12 8.62876e-05
*RES
1 *526:Y *32:10 44.4629 
2 *32:10 *569:D 38 
*END

*D_NET *33 0.00155044
*CONN
*I *570:D I *D sky130_fd_sc_hd__dfrtp_1
*I *528:X O *D sky130_fd_sc_hd__o21ba_1
*CAP
1 *570:D 0
2 *528:X 0.000622679
3 *33:6 0.000622679
4 *33:6 *139:8 3.70553e-06
5 *33:6 *139:51 2.54193e-05
6 *33:6 *143:79 0.000275956
*RES
1 *528:X *33:6 31.788 
2 *33:6 *570:D 23 
*END

*D_NET *34 0.000195621
*CONN
*I *560:RESET_B I *D sky130_fd_sc_hd__dfrtp_2
*I *472:Y O *D sky130_fd_sc_hd__inv_2
*CAP
1 *560:RESET_B 0
2 *472:Y 7.87407e-05
3 *34:8 7.87407e-05
4 *4:13 *34:8 3.81391e-05
5 *20:10 *34:8 0
*RES
1 *472:Y *34:8 39.5536 
2 *34:8 *560:RESET_B 15 
*END

*D_NET *35 0.00135216
*CONN
*I *561:RESET_B I *D sky130_fd_sc_hd__dfrtp_1
*I *545:Y O *D sky130_fd_sc_hd__inv_2
*CAP
1 *561:RESET_B 0
2 *545:Y 0.000363342
3 *35:10 0.000363342
4 *35:10 *545:A 5.37348e-06
5 *35:10 *146:8 0
6 *35:10 *151:10 0.000138727
7 *35:10 *151:108 0.000481372
8 *21:10 *35:10 0
9 *25:10 *35:10 0
*RES
1 *545:Y *35:10 46.8657 
2 *35:10 *561:RESET_B 15 
*END

*D_NET *36 0.00119179
*CONN
*I *562:RESET_B I *D sky130_fd_sc_hd__dfrtp_1
*I *546:Y O *D sky130_fd_sc_hd__inv_2
*CAP
1 *562:RESET_B 0
2 *546:Y 0.000315087
3 *36:10 0.000315087
4 *36:10 *501:B 0.000163352
5 *36:10 *94:18 0.000161121
6 *36:10 *100:10 5.26204e-05
7 *36:10 *151:32 0.000184527
*RES
1 *546:Y *36:10 44.4214 
2 *36:10 *562:RESET_B 15 
*END

*D_NET *37 0.00148177
*CONN
*I *563:RESET_B I *D sky130_fd_sc_hd__dfrtp_1
*I *547:Y O *D sky130_fd_sc_hd__inv_2
*CAP
1 *563:RESET_B 0.000498029
2 *547:Y 0.000498029
3 *563:RESET_B *500:A 4.67576e-05
4 *563:RESET_B *513:A 5.50049e-05
5 *563:RESET_B *517:A2 4.66047e-05
6 *563:RESET_B *563:CLK 3.77261e-05
7 *563:RESET_B *127:38 0.000102389
8 *563:RESET_B *182:10 9.96481e-05
9 *29:10 *563:RESET_B 9.75779e-05
*RES
1 *547:Y *563:RESET_B 32.9325 
*END

*D_NET *38 0.00111475
*CONN
*I *564:RESET_B I *D sky130_fd_sc_hd__dfrtp_1
*I *548:Y O *D sky130_fd_sc_hd__inv_2
*CAP
1 *564:RESET_B 7.52819e-05
2 *548:Y 0.000273046
3 *38:10 0.000348328
4 *38:10 *560:CLK 4.89774e-05
5 *38:10 *592:A 0.000266265
6 *38:10 *99:27 1.22803e-05
7 *38:10 *133:8 8.62876e-05
8 *38:10 *141:82 4.2812e-06
*RES
1 *548:Y *38:10 42.5571 
2 *38:10 *564:RESET_B 16.0254 
*END

*D_NET *39 0.000628518
*CONN
*I *565:RESET_B I *D sky130_fd_sc_hd__dfrtp_1
*I *549:Y O *D sky130_fd_sc_hd__inv_2
*CAP
1 *565:RESET_B 0
2 *549:Y 0.000167025
3 *39:10 0.000167025
4 *39:10 *510:C_N 0
5 *39:10 *516:B 3.52383e-05
6 *39:10 *102:38 9.5877e-05
7 *4:13 *39:10 0.000163352
8 *28:8 *39:10 0
*RES
1 *549:Y *39:10 41.3557 
2 *39:10 *565:RESET_B 15 
*END

*D_NET *40 0.000612183
*CONN
*I *566:RESET_B I *D sky130_fd_sc_hd__dfrtp_1
*I *550:Y O *D sky130_fd_sc_hd__inv_2
*CAP
1 *566:RESET_B 6.75388e-05
2 *550:Y 0.000105902
3 *40:10 0.000173441
4 *566:RESET_B *154:35 4.58951e-05
5 *40:10 *469:A 5.67058e-05
6 *40:10 *99:42 7.75329e-06
7 *40:10 *105:20 0.000114083
8 *40:10 *173:8 4.08641e-05
*RES
1 *550:Y *40:10 40.175 
2 *40:10 *566:RESET_B 16.0254 
*END

*D_NET *41 0.000396347
*CONN
*I *567:RESET_B I *D sky130_fd_sc_hd__dfrtp_1
*I *551:Y O *D sky130_fd_sc_hd__inv_2
*CAP
1 *567:RESET_B 0.000102184
2 *551:Y 0.000102184
3 *567:RESET_B *551:A 5.50106e-05
4 *567:RESET_B *136:10 0.000135741
5 *567:RESET_B *143:32 1.22775e-06
*RES
1 *551:Y *567:RESET_B 25.4546 
*END

*D_NET *42 0.000872945
*CONN
*I *568:RESET_B I *D sky130_fd_sc_hd__dfrtp_1
*I *552:Y O *D sky130_fd_sc_hd__inv_2
*CAP
1 *568:RESET_B 0
2 *552:Y 0.000326099
3 *42:10 0.000326099
4 *42:10 *82:12 5.3304e-05
5 *42:10 *125:18 0.000167443
6 *42:10 *137:10 0
7 *42:10 *143:16 0
8 *42:10 *153:21 0
*RES
1 *552:Y *42:10 44.0486 
2 *42:10 *568:RESET_B 15 
*END

*D_NET *43 0.000336422
*CONN
*I *569:RESET_B I *D sky130_fd_sc_hd__dfrtp_1
*I *553:Y O *D sky130_fd_sc_hd__inv_2
*CAP
1 *569:RESET_B 9.96915e-05
2 *553:Y 9.96915e-05
3 *569:RESET_B *138:6 0.000137039
*RES
1 *553:Y *569:RESET_B 25.4546 
*END

*D_NET *44 0.000570609
*CONN
*I *570:RESET_B I *D sky130_fd_sc_hd__dfrtp_1
*I *554:Y O *D sky130_fd_sc_hd__inv_2
*CAP
1 *570:RESET_B 0
2 *554:Y 0.000183548
3 *44:10 0.000183548
4 *44:10 *109:67 0.000166504
5 *44:10 *143:79 3.70094e-05
*RES
1 *554:Y *44:10 41.3557 
2 *44:10 *570:RESET_B 15 
*END

*D_NET *45 0.000391798
*CONN
*I *571:RESET_B I *D sky130_fd_sc_hd__dfrtp_1
*I *555:Y O *D sky130_fd_sc_hd__inv_2
*CAP
1 *571:RESET_B 0.000127379
2 *555:Y 0.000127379
3 *571:RESET_B *128:10 0.000137039
*RES
1 *555:Y *571:RESET_B 25.9311 
*END

*D_NET *46 0.000346375
*CONN
*I *572:RESET_B I *D sky130_fd_sc_hd__dfrtp_1
*I *556:Y O *D sky130_fd_sc_hd__inv_2
*CAP
1 *572:RESET_B 0.000127662
2 *556:Y 0.000127662
3 *572:RESET_B *556:A 5.50106e-05
4 *572:RESET_B *129:6 3.60411e-05
*RES
1 *556:Y *572:RESET_B 25.4546 
*END

*D_NET *47 0.000567749
*CONN
*I *573:RESET_B I *D sky130_fd_sc_hd__dfrtp_1
*I *557:Y O *D sky130_fd_sc_hd__inv_2
*CAP
1 *573:RESET_B 0
2 *557:Y 0.000202194
3 *47:10 0.000202194
4 *47:10 *91:106 0.000163361
5 *4:13 *47:10 0
*RES
1 *557:Y *47:10 41.3557 
2 *47:10 *573:RESET_B 15 
*END

*D_NET *48 0.000682704
*CONN
*I *574:SET_B I *D sky130_fd_sc_hd__dfstp_1
*I *558:Y O *D sky130_fd_sc_hd__inv_2
*CAP
1 *574:SET_B 0
2 *558:Y 0.000258466
3 *48:10 0.000258466
4 *48:10 *154:84 5.12254e-05
5 *48:10 *154:92 3.56537e-05
6 *48:10 *154:105 7.88926e-05
*RES
1 *558:Y *48:10 42.0807 
2 *48:10 *574:SET_B 15 
*END

*D_NET *49 0.000334439
*CONN
*I *575:RESET_B I *D sky130_fd_sc_hd__dfrtp_1
*I *559:Y O *D sky130_fd_sc_hd__inv_2
*CAP
1 *575:RESET_B 0.000118762
2 *559:Y 0.000118762
3 *575:RESET_B *154:92 5.50106e-05
4 *575:RESET_B *195:6 4.19048e-05
*RES
1 *559:Y *575:RESET_B 25.4546 
*END

*D_NET *50 0.00155116
*CONN
*I *576:RESET_B I *D sky130_fd_sc_hd__dfrtp_1
*I *450:Y O *D sky130_fd_sc_hd__inv_2
*CAP
1 *576:RESET_B 0.000413283
2 *450:Y 0.000223491
3 *50:8 0.000636774
4 *576:RESET_B *576:CLK 5.10805e-05
5 *50:8 *576:CLK 0
6 *50:8 *144:53 0
7 *50:8 *195:56 8.62783e-05
8 *576:D *576:RESET_B 0.000140259
9 *17:10 *50:8 0
*RES
1 *450:Y *50:8 42.0186 
2 *50:8 *576:RESET_B 20.9554 
*END

*D_NET *51 0.000738587
*CONN
*I *577:RESET_B I *D sky130_fd_sc_hd__dfrtp_1
*I *451:Y O *D sky130_fd_sc_hd__inv_2
*CAP
1 *577:RESET_B 0.000196506
2 *451:Y 9.48871e-05
3 *51:8 0.000291393
4 *577:RESET_B *197:10 0.00010018
5 *51:8 *154:92 0
6 *51:8 *197:10 5.56203e-05
*RES
1 *451:Y *51:8 39.9057 
2 *51:8 *577:RESET_B 18.4075 
*END

*D_NET *52 0.000647465
*CONN
*I *578:RESET_B I *D sky130_fd_sc_hd__dfrtp_1
*I *452:Y O *D sky130_fd_sc_hd__inv_2
*CAP
1 *578:RESET_B 0.00010364
2 *452:Y 5.04181e-05
3 *52:8 0.000154058
4 *52:8 *147:12 0.000169674
5 *52:8 *153:81 0.000169674
*RES
1 *452:Y *52:8 40.2579 
2 *52:8 *578:RESET_B 16.5018 
*END

*D_NET *53 0.000487517
*CONN
*I *579:SET_B I *D sky130_fd_sc_hd__dfstp_1
*I *453:Y O *D sky130_fd_sc_hd__inv_2
*CAP
1 *579:SET_B 0.000196672
2 *453:Y 0.000196672
3 *579:SET_B *636:A 9.4173e-05
*RES
1 *453:Y *579:SET_B 26.8839 
*END

*D_NET *54 0.00151297
*CONN
*I *580:RESET_B I *D sky130_fd_sc_hd__dfrtp_1
*I *454:Y O *D sky130_fd_sc_hd__inv_2
*CAP
1 *580:RESET_B 0.00031284
2 *454:Y 6.62726e-05
3 *54:8 0.000379113
4 *580:RESET_B *608:A 0.000317087
5 *580:RESET_B *99:27 5.3304e-05
6 *580:RESET_B *168:10 4.65826e-05
7 *54:8 *472:A 0.000166513
8 *54:8 *99:27 0.000141879
9 *20:10 *580:RESET_B 2.93747e-05
*RES
1 *454:Y *54:8 40.2579 
2 *54:8 *580:RESET_B 21.7425 
*END

*D_NET *55 0.000520583
*CONN
*I *581:RESET_B I *D sky130_fd_sc_hd__dfrtp_1
*I *455:Y O *D sky130_fd_sc_hd__inv_2
*CAP
1 *581:RESET_B 0
2 *455:Y 0.000175384
3 *55:10 0.000175384
4 *55:10 *580:CLK 8.81898e-05
5 *55:10 *151:108 0
6 *55:10 *154:46 8.16253e-05
*RES
1 *455:Y *55:10 41.3557 
2 *55:10 *581:RESET_B 15 
*END

*D_NET *56 0.00041772
*CONN
*I *582:RESET_B I *D sky130_fd_sc_hd__dfrtp_1
*I *456:Y O *D sky130_fd_sc_hd__inv_2
*CAP
1 *582:RESET_B 3.30974e-05
2 *456:Y 3.30974e-05
3 *582:RESET_B *456:A 0.000127537
4 *582:RESET_B *162:10 0.000223988
*RES
1 *456:Y *582:RESET_B 25.4546 
*END

*D_NET *57 0.00105155
*CONN
*I *583:RESET_B I *D sky130_fd_sc_hd__dfrtp_1
*I *457:Y O *D sky130_fd_sc_hd__inv_2
*CAP
1 *583:RESET_B 0.000160723
2 *457:Y 8.76404e-05
3 *57:8 0.000248363
4 *583:RESET_B *542:A3 9.67842e-05
5 *583:RESET_B *123:10 5.50049e-05
6 *583:RESET_B *154:62 3.17634e-05
7 *583:RESET_B *189:8 9.84794e-05
8 *57:8 *602:A 0
9 *57:8 *152:68 0.000191157
10 *57:8 *189:14 8.16356e-05
*RES
1 *457:Y *57:8 40.61 
2 *57:8 *583:RESET_B 18.4075 
*END

*D_NET *58 0.000854994
*CONN
*I *584:RESET_B I *D sky130_fd_sc_hd__dfrtp_1
*I *458:Y O *D sky130_fd_sc_hd__inv_2
*CAP
1 *584:RESET_B 0.000171635
2 *458:Y 0.000126579
3 *58:8 0.000298214
4 *584:RESET_B *142:48 4.22206e-05
5 *584:RESET_B *190:6 9.91798e-05
6 *58:8 *539:C1 2.39911e-05
7 *58:8 *119:14 2.76611e-06
8 *58:8 *142:10 0
9 *58:8 *142:16 0
10 *58:8 *150:41 9.04083e-05
*RES
1 *458:Y *58:8 40.61 
2 *58:8 *584:RESET_B 18.4075 
*END

*D_NET *59 0.000750768
*CONN
*I *585:RESET_B I *D sky130_fd_sc_hd__dfrtp_1
*I *459:Y O *D sky130_fd_sc_hd__inv_2
*CAP
1 *585:RESET_B 0
2 *459:Y 0.000273158
3 *59:10 0.000273158
4 *59:10 *459:A 2.30292e-05
5 *59:10 *461:A 0.000111045
6 *59:10 *91:24 0
7 *59:10 *91:26 0
8 *59:10 *152:21 7.03766e-05
*RES
1 *459:Y *59:10 43.8207 
2 *59:10 *585:RESET_B 15 
*END

*D_NET *60 0.00127832
*CONN
*I *586:RESET_B I *D sky130_fd_sc_hd__dfrtp_1
*I *460:Y O *D sky130_fd_sc_hd__inv_2
*CAP
1 *586:RESET_B 0
2 *460:Y 0.000394012
3 *60:10 0.000394012
4 *60:10 *142:83 6.31763e-05
5 *60:10 *149:100 8.62783e-05
6 *60:10 *152:27 3.66555e-05
7 *60:10 *158:16 8.16757e-06
8 *60:10 *192:14 0.000296017
*RES
1 *460:Y *60:10 46.2857 
2 *60:10 *586:RESET_B 15 
*END

*D_NET *61 0.000690148
*CONN
*I *587:RESET_B I *D sky130_fd_sc_hd__dfrtp_1
*I *461:Y O *D sky130_fd_sc_hd__inv_2
*CAP
1 *587:RESET_B 0
2 *461:Y 0.000182052
3 *61:8 0.000182052
4 *61:8 *461:A 0.000326044
5 *61:8 *485:S 0
*RES
1 *461:Y *61:8 42.3707 
2 *61:8 *587:RESET_B 15 
*END

*D_NET *62 0.000248839
*CONN
*I *588:RESET_B I *D sky130_fd_sc_hd__dfrtp_1
*I *462:Y O *D sky130_fd_sc_hd__inv_2
*CAP
1 *588:RESET_B 0
2 *462:Y 6.62623e-05
3 *62:8 6.62623e-05
4 *62:8 *152:42 0.000116314
*RES
1 *462:Y *62:8 39.5536 
2 *62:8 *588:RESET_B 15 
*END

*D_NET *63 0.000648048
*CONN
*I *589:RESET_B I *D sky130_fd_sc_hd__dfrtp_1
*I *463:Y O *D sky130_fd_sc_hd__inv_2
*CAP
1 *589:RESET_B 0
2 *463:Y 0.000267075
3 *63:10 0.000267075
4 *63:10 *149:22 2.22183e-05
5 *63:10 *184:10 9.168e-05
*RES
1 *463:Y *63:10 41.7079 
2 *63:10 *589:RESET_B 15 
*END

*D_NET *64 0.000386026
*CONN
*I *590:RESET_B I *D sky130_fd_sc_hd__dfrtp_1
*I *464:Y O *D sky130_fd_sc_hd__inv_2
*CAP
1 *590:RESET_B 0.000127098
2 *464:Y 0.000127098