*SPEF "ieee 1481-1999"
*DESIGN "top"
*DATE "20:51:44 Thursday February 05, 2026"
*VENDOR "The OpenROAD Project"
*PROGRAM "OpenROAD"
*VERSION "edf00dff99f6c40d67a30c0e22a8191c5d2ed9d6"
*DESIGN_FLOW "NAME_SCOPE LOCAL" "PIN_CAP NONE"
*DIVIDER /
*DELIMITER :
*BUS_DELIMITER []
*T_UNIT 1 NS
*C_UNIT 1 PF
*R_UNIT 1 OHM
*L_UNIT 1 HENRY

*NAME_MAP
*3 busy
*4 clk
*5 data_in[0]
*6 data_in[1]
*7 data_in[2]
*8 data_in[3]
*9 data_in[4]
*10 data_in[5]
*11 data_in[6]
*12 data_in[7]
*13 en
*14 rst
*15 tx
*16 _000_
*17 _001_
*18 _002_
*19 _003_
*20 _004_
*21 _005_
*22 _006_
*23 _007_
*24 _008_
*25 _009_
*26 _010_
*27 _011_
*28 _012_
*29 _013_
*30 _014_
*31 _015_
*32 _016_
*33 _017_
*34 _018_
*35 _019_
*36 _020_
*37 _021_
*38 _022_
*39 _023_
*40 _024_
*41 _025_
*42 _026_
*43 _027_
*44 _028_
*45 _029_
*46 _030_
*47 _031_
*48 _032_
*49 _033_
*50 _034_
*51 _035_
*52 _036_
*53 _037_
*54 _038_
*55 _039_
*56 _040_
*57 _041_
*58 _042_
*59 _043_
*60 _044_
*61 _045_
*62 _046_
*63 _047_
*64 _048_
*65 _049_
*66 _050_
*67 _051_
*68 _052_
*69 _053_
*70 _054_
*71 _055_
*72 _056_
*73 _057_
*74 _058_
*75 _059_
*76 _060_
*77 _061_
*78 _062_
*79 _063_
*80 _064_
*81 _065_
*82 _066_
*83 _067_
*84 _068_
*85 _069_
*86 _070_
*87 _071_
*88 _072_
*89 _073_
*90 _074_
*91 _075_
*92 _076_
*93 _077_
*94 _078_
*95 _079_
*96 _080_
*97 _081_
*98 _082_
*99 _083_
*100 _084_
*101 _085_
*102 _086_
*103 _087_
*104 _088_
*105 _089_
*106 _090_
*107 _091_
*108 _092_
*109 _093_
*110 _094_
*111 _095_
*112 _096_
*113 _097_
*114 _098_
*115 _099_
*116 _100_
*117 _101_
*118 _102_
*119 _103_
*120 _104_
*121 _105_
*122 _106_
*123 _107_
*124 _108_
*125 _109_
*126 baud_inst\.baud_tick
*127 baud_inst\.cnt\[0\]
*128 baud_inst\.cnt\[10\]
*129 baud_inst\.cnt\[11\]
*130 baud_inst\.cnt\[12\]
*131 baud_inst\.cnt\[1\]
*132 baud_inst\.cnt\[2\]
*133 baud_inst\.cnt\[3\]
*134 baud_inst\.cnt\[4\]
*135 baud_inst\.cnt\[5\]
*136 baud_inst\.cnt\[6\]
*137 baud_inst\.cnt\[7\]
*138 baud_inst\.cnt\[8\]
*139 baud_inst\.cnt\[9\]
*140 clknet_0_clk
*141 clknet_2_0__leaf_clk
*142 clknet_2_1__leaf_clk
*143 clknet_2_2__leaf_clk
*144 clknet_2_3__leaf_clk
*145 net1
*146 net10
*147 net11
*148 net12
*149 net13
*150 net14
*151 net15
*152 net16
*153 net17
*154 net18
*155 net19
*156 net2
*157 net20
*158 net21
*159 net22
*160 net23
*161 net24
*162 net25
*163 net26
*164 net27
*165 net28
*166 net29
*167 net3
*168 net30
*169 net31
*170 net32
*171 net33
*172 net34
*173 net35
*174 net36
*175 net37
*176 net4
*177 net5
*178 net6
*179 net7
*180 net8
*181 net9
*182 uart_tx_inst\.cnt\[0\]
*183 uart_tx_inst\.cnt\[1\]
*184 uart_tx_inst\.cnt\[2\]
*185 uart_tx_inst\.data_reg\[0\]
*186 uart_tx_inst\.data_reg\[1\]
*187 uart_tx_inst\.data_reg\[2\]
*188 uart_tx_inst\.data_reg\[3\]
*189 uart_tx_inst\.data_reg\[4\]
*190 uart_tx_inst\.data_reg\[5\]
*191 uart_tx_inst\.data_reg\[6\]
*192 uart_tx_inst\.data_reg\[7\]
*193 uart_tx_inst\.state\[0\]
*194 uart_tx_inst\.state\[1\]
*195 uart_tx_inst\.state\[2\]
*196 uart_tx_inst\.state\[3\]
*197 FILLER_0_109
*198 FILLER_0_113
*199 FILLER_0_119
*200 FILLER_0_18
*201 FILLER_0_26
*202 FILLER_0_36
*203 FILLER_0_48
*204 FILLER_0_52
*205 FILLER_0_57
*206 FILLER_0_6
*207 FILLER_0_69
*208 FILLER_0_81
*209 FILLER_0_85
*210 FILLER_0_97
*211 FILLER_10_109
*212 FILLER_10_117
*213 FILLER_10_14
*214 FILLER_10_25
*215 FILLER_10_36
*216 FILLER_10_44
*217 FILLER_10_48
*218 FILLER_10_6
*219 FILLER_10_75
*220 FILLER_10_83
*221 FILLER_10_85
*222 FILLER_10_97
*223 FILLER_11_104
*224 FILLER_11_113
*225 FILLER_11_119
*226 FILLER_11_15
*227 FILLER_11_3
*228 FILLER_11_33
*229 FILLER_11_54
*230 FILLER_11_57
*231 FILLER_11_80
*232 FILLER_11_88
*233 FILLER_11_92
*234 FILLER_12_106
*235 FILLER_12_118
*236 FILLER_12_23
*237 FILLER_12_27
*238 FILLER_12_29
*239 FILLER_12_46
*240 FILLER_12_50
*241 FILLER_12_83
*242 FILLER_13_105
*243 FILLER_13_111
*244 FILLER_13_113
*245 FILLER_13_119
*246 FILLER_13_29
*247 FILLER_13_38
*248 FILLER_13_6
*249 FILLER_13_63
*250 FILLER_14_11
*251 FILLER_14_115
*252 FILLER_14_119
*253 FILLER_14_27
*254 FILLER_14_3
*255 FILLER_14_49
*256 FILLER_14_63
*257 FILLER_14_85
*258 FILLER_15_111
*259 FILLER_15_113
*260 FILLER_15_119
*261 FILLER_15_38
*262 FILLER_15_50
*263 FILLER_15_62
*264 FILLER_15_75
*265 FILLER_15_87
*266 FILLER_15_99
*267 FILLER_16_109
*268 FILLER_16_117
*269 FILLER_16_26
*270 FILLER_16_44
*271 FILLER_16_57
*272 FILLER_16_81
*273 FILLER_16_85
*274 FILLER_16_97
*275 FILLER_17_106
*276 FILLER_17_113
*277 FILLER_17_119
*278 FILLER_17_49
*279 FILLER_17_57
*280 FILLER_17_94
*281 FILLER_18_10
*282 FILLER_18_109
*283 FILLER_18_115
*284 FILLER_18_29
*285 FILLER_18_39
*286 FILLER_18_6
*287 FILLER_18_70
*288 FILLER_18_83
*289 FILLER_18_85
*290 FILLER_18_97
*291 FILLER_19_109
*292 FILLER_19_113
*293 FILLER_19_119
*294 FILLER_19_17
*295 FILLER_19_23
*296 FILLER_19_27
*297 FILLER_19_29
*298 FILLER_19_37
*299 FILLER_19_48
*300 FILLER_19_57
*301 FILLER_19_65
*302 FILLER_19_74
*303 FILLER_19_82
*304 FILLER_19_85
*305 FILLER_19_9
*306 FILLER_19_97
*307 FILLER_1_106
*308 FILLER_1_113
*309 FILLER_1_119
*310 FILLER_1_12
*311 FILLER_1_19
*312 FILLER_1_3
*313 FILLER_1_67
*314 FILLER_1_94
*315 FILLER_2_36
*316 FILLER_2_68
*317 FILLER_2_91
*318 FILLER_3_102
*319 FILLER_3_110
*320 FILLER_3_23
*321 FILLER_3_36
*322 FILLER_3_50
*323 FILLER_3_57
*324 FILLER_4_112
*325 FILLER_4_7
*326 FILLER_4_74
*327 FILLER_4_91
*328 FILLER_5_111
*329 FILLER_5_113
*330 FILLER_5_119
*331 FILLER_5_14
*332 FILLER_5_54
*333 FILLER_5_57
*334 FILLER_5_6
*335 FILLER_5_69
*336 FILLER_5_99
*337 FILLER_6_23
*338 FILLER_6_27
*339 FILLER_6_52
*340 FILLER_6_58
*341 FILLER_6_74
*342 FILLER_6_82
*343 FILLER_7_110
*344 FILLER_7_116
*345 FILLER_7_18
*346 FILLER_7_3
*347 FILLER_7_47
*348 FILLER_7_52
*349 FILLER_7_90
*350 FILLER_8_114
*351 FILLER_8_25
*352 FILLER_8_29
*353 FILLER_8_35
*354 FILLER_8_6
*355 FILLER_8_60
*356 FILLER_9_100
*357 FILLER_9_104
*358 FILLER_9_113
*359 FILLER_9_119
*360 FILLER_9_3
*361 FILLER_9_35
*362 FILLER_9_47
*363 FILLER_9_55
*364 FILLER_9_57
*365 FILLER_9_69
*366 FILLER_9_96
*367 PHY_EDGE_ROW_0_Left_20
*368 PHY_EDGE_ROW_0_Right_0
*369 PHY_EDGE_ROW_10_Left_30
*370 PHY_EDGE_ROW_10_Right_10
*371 PHY_EDGE_ROW_11_Left_31
*372 PHY_EDGE_ROW_11_Right_11
*373 PHY_EDGE_ROW_12_Left_32
*374 PHY_EDGE_ROW_12_Right_12
*375 PHY_EDGE_ROW_13_Left_33
*376 PHY_EDGE_ROW_13_Right_13
*377 PHY_EDGE_ROW_14_Left_34
*378 PHY_EDGE_ROW_14_Right_14
*379 PHY_EDGE_ROW_15_Left_35
*380 PHY_EDGE_ROW_15_Right_15
*381 PHY_EDGE_ROW_16_Left_36
*382 PHY_EDGE_ROW_16_Right_16
*383 PHY_EDGE_ROW_17_Left_37
*384 PHY_EDGE_ROW_17_Right_17
*385 PHY_EDGE_ROW_18_Left_38
*386 PHY_EDGE_ROW_18_Right_18
*387 PHY_EDGE_ROW_19_Left_39
*388 PHY_EDGE_ROW_19_Right_19
*389 PHY_EDGE_ROW_1_Left_21
*390 PHY_EDGE_ROW_1_Right_1
*391 PHY_EDGE_ROW_2_Left_22
*392 PHY_EDGE_ROW_2_Right_2
*393 PHY_EDGE_ROW_3_Left_23
*394 PHY_EDGE_ROW_3_Right_3
*395 PHY_EDGE_ROW_4_Left_24
*396 PHY_EDGE_ROW_4_Right_4
*397 PHY_EDGE_ROW_5_Left_25
*398 PHY_EDGE_ROW_5_Right_5
*399 PHY_EDGE_ROW_6_Left_26
*400 PHY_EDGE_ROW_6_Right_6
*401 PHY_EDGE_ROW_7_Left_27
*402 PHY_EDGE_ROW_7_Right_7
*403 PHY_EDGE_ROW_8_Left_28
*404 PHY_EDGE_ROW_8_Right_8
*405 PHY_EDGE_ROW_9_Left_29
*406 PHY_EDGE_ROW_9_Right_9
*407 TAP_TAPCELL_ROW_0_40
*408 TAP_TAPCELL_ROW_0_41
*409 TAP_TAPCELL_ROW_0_42
*410 TAP_TAPCELL_ROW_0_43
*411 TAP_TAPCELL_ROW_10_62
*412 TAP_TAPCELL_ROW_10_63
*413 TAP_TAPCELL_ROW_11_64
*414 TAP_TAPCELL_ROW_11_65
*415 TAP_TAPCELL_ROW_12_66
*416 TAP_TAPCELL_ROW_12_67
*417 TAP_TAPCELL_ROW_13_68
*418 TAP_TAPCELL_ROW_13_69
*419 TAP_TAPCELL_ROW_14_70
*420 TAP_TAPCELL_ROW_14_71
*421 TAP_TAPCELL_ROW_15_72
*422 TAP_TAPCELL_ROW_15_73
*423 TAP_TAPCELL_ROW_16_74
*424 TAP_TAPCELL_ROW_16_75
*425 TAP_TAPCELL_ROW_17_76
*426 TAP_TAPCELL_ROW_17_77
*427 TAP_TAPCELL_ROW_18_78
*428 TAP_TAPCELL_ROW_18_79
*429 TAP_TAPCELL_ROW_19_80
*430 TAP_TAPCELL_ROW_19_81
*431 TAP_TAPCELL_ROW_19_82
*432 TAP_TAPCELL_ROW_19_83
*433 TAP_TAPCELL_ROW_1_44
*434 TAP_TAPCELL_ROW_1_45
*435 TAP_TAPCELL_ROW_2_46
*436 TAP_TAPCELL_ROW_2_47
*437 TAP_TAPCELL_ROW_3_48
*438 TAP_TAPCELL_ROW_3_49
*439 TAP_TAPCELL_ROW_4_50
*440 TAP_TAPCELL_ROW_4_51
*441 TAP_TAPCELL_ROW_5_52
*442 TAP_TAPCELL_ROW_5_53
*443 TAP_TAPCELL_ROW_6_54
*444 TAP_TAPCELL_ROW_6_55
*445 TAP_TAPCELL_ROW_7_56
*446 TAP_TAPCELL_ROW_7_57
*447 TAP_TAPCELL_ROW_8_58
*448 TAP_TAPCELL_ROW_8_59
*449 TAP_TAPCELL_ROW_9_60
*450 TAP_TAPCELL_ROW_9_61
*451 _110_
*452 _111_
*453 _112_
*454 _113_
*455 _114_
*456 _115_
*457 _116_
*458 _117_
*459 _118_
*460 _119_
*461 _120_
*462 _121_
*463 _122_
*464 _123_
*465 _124_
*466 _125_
*467 _126_
*468 _127_
*469 _128_
*470 _129_
*471 _130_
*472 _131_
*473 _132_
*474 _133_
*475 _134_
*476 _135_
*477 _136_
*478 _137_
*479 _138_
*480 _139_
*481 _140_
*482 _141_
*483 _142_
*484 _143_
*485 _144_
*486 _145_
*487 _146_
*488 _147_
*489 _148_
*490 _149_
*491 _150_
*492 _151_
*493 _152_
*494 _153_
*495 _154_
*496 _155_
*497 _156_
*498 _157_
*499 _158_
*500 _159_
*501 _160_
*502 _161_
*503 _162_
*504 _163_
*505 _164_
*506 _165_
*507 _166_
*508 _167_
*509 _168_
*510 _169_
*511 _170_
*512 _171_
*513 _172_
*514 _173_
*515 _174_
*516 _175_
*517 _176_
*518 _177_
*519 _178_
*520 _179_
*521 _180_
*522 _181_
*523 _182_
*524 _183_
*525 _184_
*526 _185_
*527 _186_
*528 _187_
*529 _188_
*530 _189_
*531 _190_
*532 _191_
*533 _192_
*534 _193_
*535 _194_
*536 _195_
*537 _196_
*538 _197_
*539 _198_
*540 _199_
*541 _200_
*542 _201_
*543 _202_
*544 _203_
*545 _204_
*546 _205_
*547 _206_
*548 _207_
*549 _208_
*550 _209_
*551 _210_
*552 _211_
*553 _212_
*554 _213_
*555 _214_
*556 _215_
*557 _216_
*558 _217_
*559 _218_
*560 _219_
*561 _220_
*562 _221_
*563 _222_
*564 _223_
*565 _224_
*566 _225_
*567 _226_
*568 _227_
*569 _228_
*570 _229_
*571 _230_
*572 _231_
*573 _232_
*574 _233_
*575 _234_
*576 _235_
*577 _236_
*578 _237_
*579 _238_
*580 _239_
*581 _240_
*582 _241_
*583 _242_
*584 _243_
*585 _244_
*586 _245_
*587 _246_
*588 _247_
*589 _248_
*590 _249_
*591 _250_
*592 clkbuf_0_clk
*593 clkbuf_2_0__f_clk
*594 clkbuf_2_1__f_clk
*595 clkbuf_2_2__f_clk
*596 clkbuf_2_3__f_clk
*597 clkload0
*598 clkload1
*599 clkload2
*600 fanout13
*601 fanout14
*602 fanout15
*603 fanout16
*604 fanout17
*605 fanout18
*606 hold1
*607 hold10
*608 hold11
*609 hold12
*610 hold13
*611 hold14
*612 hold15
*613 hold16
*614 hold17
*615 hold18
*616 hold19
*617 hold2
*618 hold3
*619 hold4
*620 hold5
*621 hold6
*622 hold7
*623 hold8
*624 hold9
*625 input1
*626 input10
*627 input2
*628 input3
*629 input4
*630 input5
*631 input6
*632 input7
*633 input8
*634 input9
*635 output11
*636 output12

*PORTS
busy O
clk I
data_in[0] I
data_in[1] I
data_in[2] I
data_in[3] I
data_in[4] I
data_in[5] I
data_in[6] I
data_in[7] I
en I
rst I
tx O

*D_NET *3 0.000637734
*CONN
*P busy O
*I *635:X O *D sky130_fd_sc_hd__buf_2
*CAP
1 busy 0.00028613
2 *635:X 0.00028613
3 busy *147:29 6.54744e-05
*RES
1 *635:X busy 48.4875 
*END

*D_NET *4 0.0077892
*CONN
*P clk I
*I *592:A I *D sky130_fd_sc_hd__clkbuf_16
*CAP
1 clk 0.00267337
2 *592:A 0
3 *4:9 0.00267337
4 *4:9 *504:B 0
5 *4:9 *514:A 0.000270443
6 *4:9 *516:A 0.000110913
7 *4:9 *517:B 7.70737e-05
8 *4:9 *549:A 0
9 *4:9 *567:D 2.1199e-05
10 *4:9 *626:A 0
11 *4:9 *20:10 0.000107351
12 *4:9 *24:10 0
13 *4:9 *34:8 5.80963e-05
14 *4:9 *40:10 0
15 *4:9 *99:10 0.000219882
16 *4:9 *99:38 0.00069178
17 *4:9 *99:59 0
18 *4:9 *102:40 3.39231e-05
19 *4:9 *134:12 0.000237534
20 *4:9 *134:45 0
21 *4:9 *135:12 0
22 *4:9 *152:51 0.000604008
23 *4:9 *154:47 1.02561e-05
*RES
1 clk *4:9 48.8528 
2 *4:9 *592:A 38 
*END

*D_NET *5 0.00065742
*CONN
*P data_in[0] I
*I *625:A I *D sky130_fd_sc_hd__clkbuf_1
*CAP
1 data_in[0] 0.00032871
2 *625:A 0
3 *5:17 0.00032871
4 *5:17 *6:17 0
5 *5:17 *13:11 0
*RES
1 data_in[0] *5:17 27.1584 
2 *5:17 *625:A 23 
*END

*D_NET *6 0.000742726
*CONN
*P data_in[1] I
*I *627:A I *D sky130_fd_sc_hd__clkbuf_1
*CAP
1 data_in[1] 0.000371363
2 *627:A 0
3 *6:17 0.000371363
4 *6:17 *628:A 0
5 *5:17 *6:17 0
*RES
1 data_in[1] *6:17 28.2148 
2 *6:17 *627:A 23 
*END

*D_NET *7 0.000615123
*CONN
*P data_in[2] I
*I *628:A I *D sky130_fd_sc_hd__clkbuf_1
*CAP
1 data_in[2] 0.000307562
2 *628:A 0.000307562
3 *628:A *8:17 0
4 *6:17 *628:A 0
*RES
1 data_in[2] *628:A 49.8062 
*END

*D_NET *8 0.000773577
*CONN
*P data_in[3] I
*I *629:A I *D sky130_fd_sc_hd__clkbuf_1
*CAP
1 data_in[3] 0.000386788
2 *629:A 0
3 *8:17 0.000386788
4 *8:17 *9:17 0
5 *8:17 *143:26 0
6 *628:A *8:17 0
*RES
1 data_in[3] *8:17 28.567 
2 *8:17 *629:A 23 
*END

*D_NET *9 0.000650175
*CONN
*P data_in[4] I
*I *630:A I *D sky130_fd_sc_hd__clkbuf_1
*CAP
1 data_in[4] 0.000325087
2 *630:A 0
3 *9:17 0.000325087
4 *9:17 *10:17 0
5 *8:17 *9:17 0
*RES
1 data_in[4] *9:17 27.1584 
2 *9:17 *630:A 23 
*END

*D_NET *10 0.000742726
*CONN
*P data_in[5] I
*I *631:A I *D sky130_fd_sc_hd__clkbuf_1
*CAP
1 data_in[5] 0.000371363
2 *631:A 0
3 *10:17 0.000371363
4 *10:17 *11:17 0
5 *9:17 *10:17 0
*RES
1 data_in[5] *10:17 28.2148 
2 *10:17 *631:A 23 
*END

*D_NET *11 0.000858175
*CONN
*P data_in[6] I
*I *632:A I *D sky130_fd_sc_hd__clkbuf_1
*CAP
1 data_in[6] 0.000288536
2 *632:A 0
3 *11:17 0.000288536
4 *11:17 *12:15 0.000281103
5 *10:17 *11:17 0
*RES
1 data_in[6] *11:17 27.5105 
2 *11:17 *632:A 23 
*END

*D_NET *12 0.00164633
*CONN
*P data_in[7] I
*I *633:A I *D sky130_fd_sc_hd__clkbuf_1
*CAP
1 data_in[7] 0.000671097
2 *633:A 0
3 *12:15 0.000671097
4 *12:15 *179:6 2.30292e-05
5 *11:17 *12:15 0.000281103
*RES
1 data_in[7] *12:15 36.2025 
2 *12:15 *633:A 23 
*END

*D_NET *13 0.00110727
*CONN
*P en I
*I *634:A I *D sky130_fd_sc_hd__clkbuf_2
*CAP
1 en 0.000422682
2 *634:A 0
3 *13:11 0.000422682
4 *13:11 *626:A 0
5 *13:11 *35:8 7.94352e-05
6 *13:11 *141:84 0.000182473
7 *13:11 *151:14 0
8 *13:11 *155:12 0
9 *5:17 *13:11 0
*RES
1 en *13:11 28.7427 
2 *13:11 *634:A 23 
*END

*D_NET *14 0.000603153
*CONN
*P rst I
*I *626:A I *D sky130_fd_sc_hd__clkbuf_1
*CAP
1 rst 0.000301577
2 *626:A 0.000301577
3 *4:9 *626:A 0
4 *13:11 *626:A 0
*RES
1 rst *626:A 49.8062 
*END

*D_NET *15 0.000572445
*CONN
*P tx O
*I *636:X O *D sky130_fd_sc_hd__buf_2
*CAP
1 tx 0.00027698
2 *636:X 0.00027698
3 tx *53:8 8.62073e-06
4 tx *148:10 9.86551e-06
*RES
1 *636:X tx 47.1648 
*END

*D_NET *16 0.00103412
*CONN
*I *575:D I *D sky130_fd_sc_hd__dfstp_1
*I *500:X O *D sky130_fd_sc_hd__a22o_1
*CAP
1 *575:D 0
2 *500:X 0.000455017
3 *16:10 0.000455017
4 *16:10 *494:A1 2.76611e-06
5 *16:10 *559:A 7.53384e-06
6 *16:10 *154:88 7.03766e-05
7 *16:10 *181:34 4.3407e-05
*RES
1 *500:X *16:10 44.815 
2 *16:10 *575:D 38 
*END

*D_NET *17 0.00076054
*CONN
*I *576:D I *D sky130_fd_sc_hd__dfrtp_1
*I *499:X O *D sky130_fd_sc_hd__a22o_1
*CAP
1 *576:D 4.01848e-05
2 *499:X 0.000147668
3 *17:8 0.000187853
4 *17:8 *50:10 5.56306e-05
5 *17:8 *93:10 0.000329205
6 *17:8 *195:8 0
*RES
1 *499:X *17:8 42.3707 
2 *17:8 *576:D 38.6214 
*END

*D_NET *18 0.000633128
*CONN
*I *577:D I *D sky130_fd_sc_hd__dfrtp_1
*I *498:X O *D sky130_fd_sc_hd__a21bo_1
*CAP
1 *577:D 0
2 *498:X 0.00020154
3 *18:10 0.00020154
4 *18:10 *475:A 2.64616e-05
5 *18:10 *477:C 2.76611e-06
6 *18:10 *84:8 5.93485e-05
7 *18:10 *126:85 2.92911e-06
8 *18:10 *170:8 8.4047e-05
9 *18:10 *194:61 5.44961e-05
*RES
1 *498:X *18:10 41.7079 
2 *18:10 *577:D 38 
*END

*D_NET *19 0.000381113
*CONN
*I *578:D I *D sky130_fd_sc_hd__dfrtp_1
*I *497:X O *D sky130_fd_sc_hd__a22o_1
*CAP
1 *578:D 0.000118639
2 *497:X 0.000118639
3 *578:D *193:16 0.000143835
*RES
1 *497:X *578:D 48.6929 
*END

*D_NET *20 0.00168569
*CONN
*I *561:D I *D sky130_fd_sc_hd__dfrtp_2
*I *507:Y O *D sky130_fd_sc_hd__inv_2
*CAP
1 *561:D 0.000239552
2 *507:Y 0.000200755
3 *20:10 0.000440307
4 *561:D *151:114 0.000156402
5 *20:10 *549:A 0.000169674
6 *20:10 *593:A 3.22879e-05
7 *20:10 *34:8 0.000116314
8 *20:10 *151:114 0.000223043
9 *4:9 *20:10 0.000107351
*RES
1 *507:Y *20:10 44.4007 
2 *20:10 *561:D 41.5473 
*END

*D_NET *21 0.00109579
*CONN
*I *562:D I *D sky130_fd_sc_hd__dfrtp_1
*I *469:Y O *D sky130_fd_sc_hd__inv_2
*CAP
1 *562:D 0.000107653
2 *469:Y 0.000150555
3 *21:8 0.000258208
4 *562:D *562:RESET_B 7.59794e-05
5 *21:8 *35:8 0.000123977
6 *21:8 *155:12 0.000379413
*RES
1 *469:Y *21:8 43.075 
2 *21:8 *562:D 40.0507 
*END

*D_NET *22 0.000534841
*CONN
*I *572:D I *D sky130_fd_sc_hd__dfrtp_1
*I *531:X O *D sky130_fd_sc_hd__o211a_1
*CAP
1 *572:D 0
2 *531:X 0.000137114
3 *22:10 0.000137114
4 *22:10 *138:50 5.21127e-05
5 *22:10 *139:41 9.75779e-05
6 *22:10 *154:64 0.000110922
*RES
1 *531:X *22:10 40.6514 
2 *22:10 *572:D 38 
*END

*D_NET *23 0.000743689
*CONN
*I *573:D I *D sky130_fd_sc_hd__dfrtp_1
*I *533:Y O *D sky130_fd_sc_hd__a22oi_1
*CAP
1 *573:D 0.00018364
2 *533:Y 3.89734e-05
3 *23:8 0.000222613
4 *573:D *142:31 0.000125888
5 *23:8 *533:B2 8.62876e-05
6 *23:8 *114:16 8.62876e-05
*RES
1 *533:Y *23:8 39.2014 
2 *23:8 *573:D 40.5945 
*END

*D_NET *24 0.000332595
*CONN
*I *574:D I *D sky130_fd_sc_hd__dfrtp_1
*I *536:X O *D sky130_fd_sc_hd__and3_1
*CAP
1 *574:D 0
2 *536:X 0.000127208
3 *24:10 0.000127208
4 *24:10 *593:A 3.22879e-05
5 *24:10 *91:22 4.58924e-05
6 *4:9 *24:10 0
*RES
1 *536:X *24:10 40.5271 
2 *24:10 *574:D 38 
*END

*D_NET *25 0.00125256
*CONN
*I *563:D I *D sky130_fd_sc_hd__dfrtp_1
*I *509:Y O *D sky130_fd_sc_hd__nor2_1
*CAP
1 *563:D 0.000433297
2 *509:Y 6.2969e-05
3 *25:8 0.000496266
4 *563:D *141:78 0.00016877
5 *25:8 *36:8 3.56433e-05
6 *25:8 *100:10 5.561e-05
*RES
1 *509:Y *25:8 39.5536 
2 *25:8 *563:D 43.8829 
*END

*D_NET *26 0.000872559
*CONN
*I *564:D I *D sky130_fd_sc_hd__dfrtp_1
*I *510:X O *D sky130_fd_sc_hd__xor2_1
*CAP
1 *564:D 0
2 *510:X 0.000293518
3 *26:10 0.000293518
4 *26:10 *94:20 1.14452e-05
5 *26:10 *146:6 0.000274078
6 *26:10 *146:24 0
*RES
1 *510:X *26:10 42.9093 
2 *26:10 *564:D 38 
*END

*D_NET *27 0.0019174
*CONN
*I *565:D I *D sky130_fd_sc_hd__dfrtp_1
*I *512:X O *D sky130_fd_sc_hd__a21bo_1
*CAP
1 *565:D 0.000373882
2 *512:X 0.000146753
3 *27:10 0.000520635
4 *565:D *565:CLK 0.000141982
5 *565:D *565:RESET_B 0.000164955
6 *565:D *608:A 0.00018536
7 *565:D *133:14 6.68162e-05
8 *565:D *145:6 0.000153145
9 *27:10 *99:38 0
10 *27:10 *141:62 0.00013449
11 *27:10 *181:32 2.93845e-05
*RES
1 *512:X *27:10 40.5271 
2 *27:10 *565:D 47.6736 
*END

*D_NET *28 0.000442359
*CONN
*I *566:D I *D sky130_fd_sc_hd__dfrtp_1
*I *516:X O *D sky130_fd_sc_hd__and3_1
*CAP
1 *566:D 9.97933e-05
2 *516:X 4.65376e-05
3 *28:8 0.000146331
4 *566:D *102:12 3.71369e-05
5 *28:8 *567:D 2.54046e-05
6 *28:8 *154:47 8.71559e-05
*RES
1 *516:X *28:8 39.2014 
2 *28:8 *566:D 39.595 
*END

*D_NET *29 0.00227533
*CONN
*I *567:D I *D sky130_fd_sc_hd__dfrtp_1
*I *518:Y O *D sky130_fd_sc_hd__a21oi_1
*CAP
1 *567:D 0.000415211
2 *518:Y 0.000136708
3 *29:8 0.00055192
4 *567:D *516:A 5.45887e-05
5 *567:D *99:10 0.000105062
6 *567:D *99:38 0.000121273
7 *29:8 *516:B 0.000306338
8 *29:8 *518:A2 4.2573e-05
9 *29:8 *151:50 5.91916e-05
10 *29:8 *154:53 0.00043586
11 *4:9 *567:D 2.1199e-05
12 *28:8 *567:D 2.54046e-05
*RES
1 *518:Y *29:8 43.3857 
2 *29:8 *567:D 46.5964 
*END

*D_NET *30 0.000877227
*CONN
*I *568:D I *D sky130_fd_sc_hd__dfrtp_1
*I *521:X O *D sky130_fd_sc_hd__and3_1
*CAP
1 *568:D 0
2 *521:X 0.000355571
3 *30:10 0.000355571
4 *30:10 *520:B 1.32939e-05
5 *30:10 *107:6 0.00010018
6 *30:10 *154:53 5.26101e-05
*RES
1 *521:X *30:10 43.7379 
2 *30:10 *568:D 38 
*END

*D_NET *31 0.00152293
*CONN
*I *569:D I *D sky130_fd_sc_hd__dfrtp_1
*I *524:Y O *D sky130_fd_sc_hd__a21oi_1
*CAP
1 *569:D 0
2 *524:Y 0.000391526
3 *31:10 0.000391526
4 *31:10 *505:A 0.000179712
5 *31:10 *96:8 5.61414e-05
6 *31:10 *99:59 5.3304e-05
7 *31:10 *107:14 0
8 *31:10 *109:50 8.72173e-05
9 *31:10 *128:34 2.64616e-05
10 *31:10 *137:10 6.48049e-05
11 *31:10 *137:23 0.00015954
12 *31:10 *140:27 3.95949e-05
13 *31:10 *142:92 7.30978e-05
14 *31:10 *181:34 0
*RES
1 *524:Y *31:10 47.9221 
2 *31:10 *569:D 38 
*END

*D_NET *32 0.00118357
*CONN
*I *570:D I *D sky130_fd_sc_hd__dfrtp_1
*I *527:Y O *D sky130_fd_sc_hd__nor2_1
*CAP
1 *570:D 0.000124841
2 *527:Y 0.00020124
3 *32:8 0.000326081
4 *570:D *138:10 5.41288e-05
5 *570:D *139:16 0.000102313
6 *32:8 *43:10 5.97612e-05
7 *32:8 *110:25 0.000218971
8 *32:8 *128:10 4.66036e-05
9 *32:8 *138:10 4.96264e-05
10 *32:8 *153:25 0
*RES
1 *527:Y *32:8 42.7229 
2 *32:8 *570:D 41.0036 
*END

*D_NET *33 0.0010179
*CONN
*I *571:D I *D sky130_fd_sc_hd__dfrtp_1
*I *529:X O *D sky130_fd_sc_hd__o21ba_1
*CAP
1 *571:D 0
2 *529:X 0.00036723
3 *33:10 0.00036723
4 *33:10 *570:CLK 0.000140259
5 *33:10 *110:12 2.96051e-05
6 *33:10 *112:21 1.62015e-05
7 *33:10 *125:16 0
8 *33:10 *142:58 9.46108e-05
9 *33:10 *142:60 2.76611e-06
10 *33:10 *154:64 0
*RES
1 *529:X *33:10 45.7057 
2 *33:10 *571:D 38 
*END

*D_NET *34 0.000258354
*CONN
*I *561:RESET_B I *D sky130_fd_sc_hd__dfrtp_2
*I *473:Y O *D sky130_fd_sc_hd__inv_2
*CAP
1 *561:RESET_B 0
2 *473:Y 4.19718e-05
3 *34:8 4.19718e-05
4 *4:9 *34:8 5.80963e-05
5 *20:10 *34:8 0.000116314
*RES
1 *473:Y *34:8 39.5536 
2 *34:8 *561:RESET_B 15 
*END

*D_NET *35 0.00102039
*CONN
*I *562:RESET_B I *D sky130_fd_sc_hd__dfrtp_1
*I *546:Y O *D sky130_fd_sc_hd__inv_2
*CAP
1 *562:RESET_B 0.000114261
2 *546:Y 0.000256239
3 *35:8 0.0003705
4 *35:8 *155:12 0
5 *562:D *562:RESET_B 7.59794e-05
6 *13:11 *35:8 7.94352e-05
7 *21:8 *35:8 0.000123977
*RES
1 *546:Y *35:8 43.7793 
2 *35:8 *562:RESET_B 16.9782 
*END

*D_NET *36 0.000308584
*CONN
*I *563:RESET_B I *D sky130_fd_sc_hd__dfrtp_1
*I *547:Y O *D sky130_fd_sc_hd__inv_2
*CAP
1 *563:RESET_B 0
2 *547:Y 6.59959e-05
3 *36:8 6.59959e-05
4 *36:8 *100:10 0
5 *36:8 *151:14 0.000140949
6 *25:8 *36:8 3.56433e-05
*RES
1 *547:Y *36:8 39.9057 
2 *36:8 *563:RESET_B 15 
*END

*D_NET *37 0.000701993
*CONN
*I *564:RESET_B I *D sky130_fd_sc_hd__dfrtp_1
*I *548:Y O *D sky130_fd_sc_hd__inv_2
*CAP
1 *564:RESET_B 0.00018311
2 *548:Y 0.00018311
3 *564:RESET_B *502:A 2.31687e-05
4 *564:RESET_B *94:20 0.000177364
5 *564:RESET_B *94:35 5.56279e-05
6 *564:RESET_B *95:10 5.79559e-05
7 *564:RESET_B *151:31 2.16575e-05
*RES
1 *548:Y *564:RESET_B 26.8839 
*END

*D_NET *38 0.00121781
*CONN
*I *565:RESET_B I *D sky130_fd_sc_hd__dfrtp_1
*I *549:Y O *D sky130_fd_sc_hd__inv_2
*CAP
1 *565:RESET_B 0.000180285
2 *549:Y 0.000180285
3 *565:RESET_B *549:A 0.000181125
4 *565:RESET_B *608:A 2.80512e-05
5 *565:RESET_B *91:22 0.000483115
6 *565:D *565:RESET_B 0.000164955
*RES
1 *549:Y *565:RESET_B 29.2661 
*END

*D_NET *39 0.000487799
*CONN
*I *566:RESET_B I *D sky130_fd_sc_hd__dfrtp_1
*I *550:Y O *D sky130_fd_sc_hd__inv_2
*CAP
1 *566:RESET_B 2.44876e-05
2 *550:Y 0.000116409
3 *39:8 0.000140896
4 *566:RESET_B *99:29 4.70852e-05
5 *566:RESET_B *105:25 2.33744e-05
6 *39:8 *40:10 0.000135547
*RES
1 *550:Y *39:8 39.9057 
2 *39:8 *566:RESET_B 15.5489 
*END

*D_NET *40 0.00190023
*CONN
*I *567:RESET_B I *D sky130_fd_sc_hd__dfrtp_1
*I *551:Y O *D sky130_fd_sc_hd__inv_2
*CAP
1 *567:RESET_B 0
2 *551:Y 0.000370562
3 *40:10 0.000370562
4 *40:10 *504:B 8.62783e-05
5 *40:10 *518:B1 0.000218023
6 *40:10 *551:A 4.34745e-05
7 *40:10 *80:20 2.68588e-05
8 *40:10 *105:10 0.000110913
9 *40:10 *134:45 0.000114016
10 *40:10 *135:12 0.000218962
11 *40:10 *151:50 9.84851e-05
12 *40:10 *154:53 0.00010655
13 *40:10 *174:10 0
14 *4:9 *40:10 0
15 *39:8 *40:10 0.000135547
*RES
1 *551:Y *40:10 48.6471 
2 *40:10 *567:RESET_B 15 
*END

*D_NET *41 0.000752017
*CONN
*I *568:RESET_B I *D sky130_fd_sc_hd__dfrtp_1
*I *552:Y O *D sky130_fd_sc_hd__inv_2
*CAP
1 *568:RESET_B 0.000277668
2 *552:Y 0.000277668
3 *568:RESET_B *568:CLK 9.41704e-05
4 *568:RESET_B *154:53 0.000102511
*RES
1 *552:Y *568:RESET_B 28.3339 
*END

*D_NET *42 0.00042291
*CONN
*I *569:RESET_B I *D sky130_fd_sc_hd__dfrtp_1
*I *553:Y O *D sky130_fd_sc_hd__inv_2
*CAP
1 *569:RESET_B 0.000103543
2 *553:Y 0.000103543
3 *569:RESET_B *137:10 0.000180514
4 *569:RESET_B *153:14 3.53115e-05
*RES
1 *553:Y *569:RESET_B 25.9311 
*END

*D_NET *43 0.000887986
*CONN
*I *570:RESET_B I *D sky130_fd_sc_hd__dfrtp_1
*I *554:Y O *D sky130_fd_sc_hd__inv_2
*CAP
1 *570:RESET_B 0
2 *554:Y 0.000264165
3 *43:10 0.000264165
4 *43:10 *554:A 1.24376e-05
5 *43:10 *44:8 6.53342e-05
6 *43:10 *110:25 0.000222123
7 *43:10 *153:25 0
8 *32:8 *43:10 5.97612e-05
*RES
1 *554:Y *43:10 44.0486 
2 *43:10 *570:RESET_B 15 
*END

*D_NET *44 0.00124831
*CONN
*I *571:RESET_B I *D sky130_fd_sc_hd__dfrtp_1
*I *555:Y O *D sky130_fd_sc_hd__inv_2
*CAP
1 *571:RESET_B 0.000167301
2 *555:Y 0.000415515
3 *44:8 0.000582816
4 *571:RESET_B *139:10 1.73399e-05
5 *44:8 *139:10 0
6 *44:8 *153:25 0
7 *43:10 *44:8 6.53342e-05
*RES
1 *555:Y *44:8 46.2443 
2 *44:8 *571:RESET_B 17.9311 
*END

*D_NET *45 0.000413632
*CONN
*I *572:RESET_B I *D sky130_fd_sc_hd__dfrtp_1
*I *556:Y O *D sky130_fd_sc_hd__inv_2
*CAP
1 *572:RESET_B 0
2 *556:Y 5.5783e-05
3 *45:8 5.5783e-05
4 *45:8 *125:16 0.000199701
5 *45:8 *153:61 0.000102365
*RES
1 *556:Y *45:8 40.61 
2 *45:8 *572:RESET_B 15 
*END

*D_NET *46 0.000502349
*CONN
*I *573:RESET_B I *D sky130_fd_sc_hd__dfrtp_1
*I *557:Y O *D sky130_fd_sc_hd__inv_2
*CAP
1 *573:RESET_B 0.00011015
2 *557:Y 0.00011015
3 *573:RESET_B *129:8 0.000139352
4 *573:RESET_B *142:31 0.000142697
*RES
1 *557:Y *573:RESET_B 25.9311 
*END

*D_NET *47 0.000672027
*CONN
*I *574:RESET_B I *D sky130_fd_sc_hd__dfrtp_1
*I *558:Y O *D sky130_fd_sc_hd__inv_2
*CAP
1 *574:RESET_B 0.000336013
2 *558:Y 0.000336013
*RES
1 *558:Y *574:RESET_B 28.3132 
*END

*D_NET *48 0.000485467
*CONN
*I *575:SET_B I *D sky130_fd_sc_hd__dfstp_1
*I *559:Y O *D sky130_fd_sc_hd__inv_2
*CAP
1 *575:SET_B 0
2 *559:Y 0.000200236
3 *48:10 0.000200236
4 *48:10 *559:A 2.93747e-05
5 *48:10 *154:88 5.56203e-05
*RES
1 *559:Y *48:10 41.1279 
2 *48:10 *575:SET_B 15 
*END

*D_NET *49 0.000314811
*CONN
*I *576:RESET_B I *D sky130_fd_sc_hd__dfrtp_1
*I *560:Y O *D sky130_fd_sc_hd__inv_2
*CAP
1 *576:RESET_B 0.000157405
2 *560:Y 0.000157405
*RES
1 *560:Y *576:RESET_B 25.4546 
*END

*D_NET *50 0.0013144
*CONN
*I *577:RESET_B I *D sky130_fd_sc_hd__dfrtp_1
*I *451:Y O *D sky130_fd_sc_hd__inv_2
*CAP
1 *577:RESET_B 3.88581e-05
2 *451:Y 0.000405716
3 *50:10 0.000444575
4 *577:RESET_B *78:8 9.18637e-05
5 *50:10 *617:A 2.93845e-05
6 *50:10 *93:10 9.18447e-05
7 *50:10 *126:48 4.6318e-06
8 *50:10 *195:8 0.000151899
9 *17:8 *50:10 5.56306e-05
*RES
1 *451:Y *50:10 46.0786 
2 *50:10 *577:RESET_B 16.0254 
*END

*D_NET *51 0.0010835
*CONN
*I *578:RESET_B I *D sky130_fd_sc_hd__dfrtp_1
*I *452:Y O *D sky130_fd_sc_hd__inv_2
*CAP
1 *578:RESET_B 0.000275093
2 *452:Y 0.000275093
3 *578:RESET_B *494:A1 0.000131378
4 *578:RESET_B *92:10 9.84851e-05
5 *578:RESET_B *147:16 0.000274078
6 *578:RESET_B *196:10 2.93747e-05
*RES
1 *452:Y *578:RESET_B 29.7425 
*END

*D_NET *52 0.000350928
*CONN
*I *579:RESET_B I *D sky130_fd_sc_hd__dfrtp_1
*I *453:Y O *D sky130_fd_sc_hd__inv_2
*CAP
1 *579:RESET_B 0.000119654
2 *453:Y 0.000119654
3 *579:RESET_B *453:A 9.8326e-05
4 *579:RESET_B *147:29 1.32939e-05
*RES
1 *453:Y *579:RESET_B 25.4546 
*END

*D_NET *53 0.000270169
*CONN
*I *580:SET_B I *D sky130_fd_sc_hd__dfstp_1
*I *454:Y O *D sky130_fd_sc_hd__inv_2
*CAP
1 *580:SET_B 0
2 *454:Y 0.000130774
3 *53:8 0.000130774
4 *53:8 *148:10 0
5 tx *53:8 8.62073e-06
*RES
1 *454:Y *53:8 40.61 
2 *53:8 *580:SET_B 15 
*END

*D_NET *54 0.000371932
*CONN
*I *581:RESET_B I *D sky130_fd_sc_hd__dfrtp_1
*I *455:Y O *D sky130_fd_sc_hd__inv_2
*CAP
1 *581:RESET_B 8.05416e-05
2 *455:Y 7.98292e-05
3 *54:8 0.000160371
4 *54:8 *141:51 5.119e-05
*RES
1 *455:Y *54:8 39.5536 
2 *54:8 *581:RESET_B 16.0254 
*END

*D_NET *55 0.000573895
*CONN
*I *582:RESET_B I *D sky130_fd_sc_hd__dfrtp_1
*I *456:Y O *D sky130_fd_sc_hd__inv_2
*CAP
1 *582:RESET_B 0
2 *456:Y 0.00016657
3 *55:10 0.00016657
4 *55:10 *456:A 1.94812e-05
5 *55:10 *66:10 0
6 *55:10 *141:38 0.000139647
7 *55:10 *151:71 8.16253e-05
*RES
1 *456:Y *55:10 41.3557 
2 *55:10 *582:RESET_B 15 
*END

*D_NET *56 0.00101092
*CONN
*I *583:RESET_B I *D sky130_fd_sc_hd__dfrtp_1
*I *457:Y O *D sky130_fd_sc_hd__inv_2
*CAP
1 *583:RESET_B 0.000319711
2 *457:Y 0.000319711
3 *583:RESET_B *620:A 0.000315857
4 *583:RESET_B *151:94 5.56356e-05
*RES
1 *457:Y *583:RESET_B 29.2661 
*END

*D_NET *57 0.000970384
*CONN
*I *584:RESET_B I *D sky130_fd_sc_hd__dfrtp_1
*I *458:Y O *D sky130_fd_sc_hd__inv_2
*CAP
1 *584:RESET_B 4.08008e-05
2 *458:Y 0.000331289
3 *57:10 0.000372089
4 *57:10 *541:B 2.76611e-06
5 *57:10 *122:10 0
6 *57:10 *150:18 0
7 *57:10 *150:39 9.74132e-05
8 *57:10 *152:23 1.84234e-05
9 *57:10 *152:38 6.2735e-05
10 *57:10 *152:58 0
11 *57:10 *188:10 4.48671e-05
*RES
1 *458:Y *57:10 44.4214 
2 *57:10 *584:RESET_B 15.5489 
*END

*D_NET *58 0.000907104
*CONN
*I *585:RESET_B I *D sky130_fd_sc_hd__dfrtp_1
*I *459:Y O *D sky130_fd_sc_hd__inv_2
*CAP
1 *585:RESET_B 0
2 *459:Y 0.000418874
3 *58:8 0.000418874
4 *58:8 *539:A2 0
5 *58:8 *143:20 0
6 *58:8 *150:14 0
7 *58:8 *152:58 0
8 *58:8 *163:10 0
9 *58:8 *177:10 0
10 *58:8 *189:23 0
11 *58:8 *190:8 6.93553e-05
*RES
1 *459:Y *58:8 45.8921 
2 *58:8 *585:RESET_B 15 
*END

*D_NET *59 0.000964895
*CONN
*I *586:RESET_B I *D sky130_fd_sc_hd__dfrtp_1
*I *460:Y O *D sky130_fd_sc_hd__inv_2
*CAP
1 *586:RESET_B 0
2 *460:Y 0.000327213
3 *59:10 0.000327213
4 *59:10 *460:A 0.000144231
5 *59:10 *91:64 9.98788e-05
6 *59:10 *178:10 6.63594e-05
*RES
1 *460:Y *59:10 44.09 
2 *59:10 *586:RESET_B 15 
*END

*D_NET *60 0.000388205
*CONN
*I *587:RESET_B I *D sky130_fd_sc_hd__dfrtp_1
*I *461:Y O *D sky130_fd_sc_hd__inv_2
*CAP
1 *587:RESET_B 0.000104859
2 *461:Y 0.000104859
3 *587:RESET_B *152:81 0.000122858
4 *587:RESET_B *191:8 5.56279e-05
*RES
1 *461:Y *587:RESET_B 25.4546 
*END

*D_NET *61 0.000545007
*CONN
*I *588:RESET_B I *D sky130_fd_sc_hd__dfrtp_1
*I *462:Y O *D sky130_fd_sc_hd__inv_2
*CAP
1 *588:RESET_B 0
2 *462:Y 0.000272504
3 *61:8 0.000272504
4 *61:8 *462:A 0
5 *61:8 *72:10 0
6 *61:8 *91:64 0
*RES
1 *462:Y *61:8 42.7229 
2 *61:8 *588:RESET_B 15 
*END

*D_NET *62 0.000354787
*CONN
*I *589:RESET_B I *D sky130_fd_sc_hd__dfrtp_1
*I *463:Y O *D sky130_fd_sc_hd__inv_2
*CAP
1 *589:RESET_B 0
2 *463:Y 0.000130483
3 *62:10 0.000130483
4 *62:10 *463:A 7.53384e-06
5 *62:10 *499:B2 0
6 *62:10 *74:8 0
7 *62:10 *182:12 8.62876e-05
*RES
1 *463:Y *62:10 40.175 
2 *62:10 *589:RESET_B 15 
*END

*D_NET *63 0.000498246
*CONN
*I *590:RESET_B I *D sky130_fd_sc_hd__dfrtp_1
*I *464:Y O *D sky130_fd_sc_hd__inv_2
*CAP
1 *590:RESET_B 0
2 *464:Y 0.000201509