*SPEF "ieee 1481-1999"
*DESIGN "top"
*DATE "20:32:13 Thursday February 05, 2026"
*VENDOR "The OpenROAD Project"
*PROGRAM "OpenROAD"
*VERSION "edf00dff99f6c40d67a30c0e22a8191c5d2ed9d6"
*DESIGN_FLOW "NAME_SCOPE LOCAL" "PIN_CAP NONE"
*DIVIDER /
*DELIMITER :
*BUS_DELIMITER []
*T_UNIT 1 NS
*C_UNIT 1 PF
*R_UNIT 1 OHM
*L_UNIT 1 HENRY

*NAME_MAP
*3 busy
*4 clk
*5 data_in[0]
*6 data_in[1]
*7 data_in[2]
*8 data_in[3]
*9 data_in[4]
*10 data_in[5]
*11 data_in[6]
*12 data_in[7]
*13 en
*14 rst
*15 tx
*16 _000_
*17 _001_
*18 _002_
*19 _003_
*20 _004_
*21 _005_
*22 _006_
*23 _007_
*24 _008_
*25 _009_
*26 _010_
*27 _011_
*28 _012_
*29 _013_
*30 _014_
*31 _015_
*32 _016_
*33 _017_
*34 _018_
*35 _019_
*36 _020_
*37 _021_
*38 _022_
*39 _023_
*40 _024_
*41 _025_
*42 _026_
*43 _027_
*44 _028_
*45 _029_
*46 _030_
*47 _031_
*48 _032_
*49 _033_
*50 _034_
*51 _035_
*52 _036_
*53 _037_
*54 _038_
*55 _039_
*56 _040_
*57 _041_
*58 _042_
*59 _043_
*60 _044_
*61 _045_
*62 _046_
*63 _047_
*64 _048_
*65 _049_
*66 _050_
*67 _051_
*68 _052_
*69 _053_
*70 _054_
*71 _055_
*72 _056_
*73 _057_
*74 _058_
*75 _059_
*76 _060_
*77 _061_
*78 _062_
*79 _063_
*80 _064_
*81 _065_
*82 _066_
*83 _067_
*84 _068_
*85 _069_
*86 _070_
*87 _071_
*88 _072_
*89 _073_
*90 _074_
*91 _075_
*92 _076_
*93 _077_
*94 _078_
*95 _079_
*96 _080_
*97 _081_
*98 _082_
*99 _083_
*100 _084_
*101 _085_
*102 _086_
*103 _087_
*104 _088_
*105 _089_
*106 _090_
*107 _091_
*108 _092_
*109 _093_
*110 _094_
*111 _095_
*112 _096_
*113 _097_
*114 _098_
*115 _099_
*116 _100_
*117 _101_
*118 _102_
*119 _103_
*120 _104_
*121 _105_
*122 _106_
*123 _107_
*124 _108_
*125 _109_
*126 baud_inst\.baud_tick
*127 baud_inst\.cnt\[0\]
*128 baud_inst\.cnt\[10\]
*129 baud_inst\.cnt\[11\]
*130 baud_inst\.cnt\[12\]
*131 baud_inst\.cnt\[1\]
*132 baud_inst\.cnt\[2\]
*133 baud_inst\.cnt\[3\]
*134 baud_inst\.cnt\[4\]
*135 baud_inst\.cnt\[5\]
*136 baud_inst\.cnt\[6\]
*137 baud_inst\.cnt\[7\]
*138 baud_inst\.cnt\[8\]
*139 baud_inst\.cnt\[9\]
*140 clknet_0_clk
*141 clknet_2_0__leaf_clk
*142 clknet_2_1__leaf_clk
*143 clknet_2_2__leaf_clk
*144 clknet_2_3__leaf_clk
*145 net1
*146 net10
*147 net11
*148 net12
*149 net13
*150 net14
*151 net15
*152 net16
*153 net17
*154 net18
*155 net19
*156 net2
*157 net20
*158 net21
*159 net22
*160 net23
*161 net24
*162 net25
*163 net26
*164 net27
*165 net28
*166 net29
*167 net3
*168 net30
*169 net31
*170 net32
*171 net33
*172 net34
*173 net35
*174 net36
*175 net37
*176 net4
*177 net5
*178 net6
*179 net7
*180 net8
*181 net9
*182 uart_tx_inst\.cnt\[0\]
*183 uart_tx_inst\.cnt\[1\]
*184 uart_tx_inst\.cnt\[2\]
*185 uart_tx_inst\.data_reg\[0\]
*186 uart_tx_inst\.data_reg\[1\]
*187 uart_tx_inst\.data_reg\[2\]
*188 uart_tx_inst\.data_reg\[3\]
*189 uart_tx_inst\.data_reg\[4\]
*190 uart_tx_inst\.data_reg\[5\]
*191 uart_tx_inst\.data_reg\[6\]
*192 uart_tx_inst\.data_reg\[7\]
*193 uart_tx_inst\.state\[0\]
*194 uart_tx_inst\.state\[1\]
*195 uart_tx_inst\.state\[2\]
*196 uart_tx_inst\.state\[3\]
*197 FILLER_0_110
*198 FILLER_0_116
*199 FILLER_0_15
*200 FILLER_0_27
*201 FILLER_0_29
*202 FILLER_0_3
*203 FILLER_0_41
*204 FILLER_0_53
*205 FILLER_0_57
*206 FILLER_0_69
*207 FILLER_0_85
*208 FILLER_10_102
*209 FILLER_10_37
*210 FILLER_10_41
*211 FILLER_10_82
*212 FILLER_10_85
*213 FILLER_11_116
*214 FILLER_11_3
*215 FILLER_11_36
*216 FILLER_11_52
*217 FILLER_11_65
*218 FILLER_11_87
*219 FILLER_12_118
*220 FILLER_12_15
*221 FILLER_12_25
*222 FILLER_12_3
*223 FILLER_12_33
*224 FILLER_12_39
*225 FILLER_12_45
*226 FILLER_12_50
*227 FILLER_12_60
*228 FILLER_12_72
*229 FILLER_12_76
*230 FILLER_12_80
*231 FILLER_12_85
*232 FILLER_12_97
*233 FILLER_13_113
*234 FILLER_13_19
*235 FILLER_13_3
*236 FILLER_13_65
*237 FILLER_13_69
*238 FILLER_13_90
*239 FILLER_14_25
*240 FILLER_14_3
*241 FILLER_14_71
*242 FILLER_15_102
*243 FILLER_15_11
*244 FILLER_15_17
*245 FILLER_15_3
*246 FILLER_15_60
*247 FILLER_15_72
*248 FILLER_15_76
*249 FILLER_15_84
*250 FILLER_16_116
*251 FILLER_16_18
*252 FILLER_16_26
*253 FILLER_16_29
*254 FILLER_16_53
*255 FILLER_16_6
*256 FILLER_16_61
*257 FILLER_17_119
*258 FILLER_17_15
*259 FILLER_17_3
*260 FILLER_17_60
*261 FILLER_17_68
*262 FILLER_18_119
*263 FILLER_18_15
*264 FILLER_18_27
*265 FILLER_18_29
*266 FILLER_18_3
*267 FILLER_18_33
*268 FILLER_18_57
*269 FILLER_18_69
*270 FILLER_18_82
*271 FILLER_18_94
*272 FILLER_19_103
*273 FILLER_19_113
*274 FILLER_19_15
*275 FILLER_19_27
*276 FILLER_19_29
*277 FILLER_19_3
*278 FILLER_19_41
*279 FILLER_19_53
*280 FILLER_19_57
*281 FILLER_19_69
*282 FILLER_19_88
*283 FILLER_1_118
*284 FILLER_1_15
*285 FILLER_1_27
*286 FILLER_1_3
*287 FILLER_1_39
*288 FILLER_1_51
*289 FILLER_1_55
*290 FILLER_1_57
*291 FILLER_1_61
*292 FILLER_2_119
*293 FILLER_2_15
*294 FILLER_2_27
*295 FILLER_2_29
*296 FILLER_2_3
*297 FILLER_2_37
*298 FILLER_2_41
*299 FILLER_2_53
*300 FILLER_2_61
*301 FILLER_2_88
*302 FILLER_3_109
*303 FILLER_3_11
*304 FILLER_3_116
*305 FILLER_3_3
*306 FILLER_3_46
*307 FILLER_3_54
*308 FILLER_3_57
*309 FILLER_4_26
*310 FILLER_4_3
*311 FILLER_4_53
*312 FILLER_4_65
*313 FILLER_4_93
*314 FILLER_5_111
*315 FILLER_5_119
*316 FILLER_6_101
*317 FILLER_6_113
*318 FILLER_6_26
*319 FILLER_6_3
*320 FILLER_6_59
*321 FILLER_6_63
*322 FILLER_6_91
*323 FILLER_7_105
*324 FILLER_7_113
*325 FILLER_7_119
*326 FILLER_7_15
*327 FILLER_7_23
*328 FILLER_7_28
*329 FILLER_7_3
*330 FILLER_7_32
*331 FILLER_7_41
*332 FILLER_7_51
*333 FILLER_7_55
*334 FILLER_7_63
*335 FILLER_7_71
*336 FILLER_7_93
*337 FILLER_8_119
*338 FILLER_8_24
*339 FILLER_8_29
*340 FILLER_8_3
*341 FILLER_8_58
*342 FILLER_8_70
*343 FILLER_8_90
*344 FILLER_8_98
*345 FILLER_9_113
*346 FILLER_9_29
*347 FILLER_9_3
*348 FILLER_9_35
*349 FILLER_9_57
*350 FILLER_9_61
*351 FILLER_9_69
*352 FILLER_9_93
*353 PHY_EDGE_ROW_0_Left_20
*354 PHY_EDGE_ROW_0_Right_0
*355 PHY_EDGE_ROW_10_Left_30
*356 PHY_EDGE_ROW_10_Right_10
*357 PHY_EDGE_ROW_11_Left_31
*358 PHY_EDGE_ROW_11_Right_11
*359 PHY_EDGE_ROW_12_Left_32
*360 PHY_EDGE_ROW_12_Right_12
*361 PHY_EDGE_ROW_13_Left_33
*362 PHY_EDGE_ROW_13_Right_13
*363 PHY_EDGE_ROW_14_Left_34
*364 PHY_EDGE_ROW_14_Right_14
*365 PHY_EDGE_ROW_15_Left_35
*366 PHY_EDGE_ROW_15_Right_15
*367 PHY_EDGE_ROW_16_Left_36
*368 PHY_EDGE_ROW_16_Right_16
*369 PHY_EDGE_ROW_17_Left_37
*370 PHY_EDGE_ROW_17_Right_17
*371 PHY_EDGE_ROW_18_Left_38
*372 PHY_EDGE_ROW_18_Right_18
*373 PHY_EDGE_ROW_19_Left_39
*374 PHY_EDGE_ROW_19_Right_19
*375 PHY_EDGE_ROW_1_Left_21
*376 PHY_EDGE_ROW_1_Right_1
*377 PHY_EDGE_ROW_2_Left_22
*378 PHY_EDGE_ROW_2_Right_2
*379 PHY_EDGE_ROW_3_Left_23
*380 PHY_EDGE_ROW_3_Right_3
*381 PHY_EDGE_ROW_4_Left_24
*382 PHY_EDGE_ROW_4_Right_4
*383 PHY_EDGE_ROW_5_Left_25
*384 PHY_EDGE_ROW_5_Right_5
*385 PHY_EDGE_ROW_6_Left_26
*386 PHY_EDGE_ROW_6_Right_6
*387 PHY_EDGE_ROW_7_Left_27
*388 PHY_EDGE_ROW_7_Right_7
*389 PHY_EDGE_ROW_8_Left_28
*390 PHY_EDGE_ROW_8_Right_8
*391 PHY_EDGE_ROW_9_Left_29
*392 PHY_EDGE_ROW_9_Right_9
*393 TAP_TAPCELL_ROW_0_40
*394 TAP_TAPCELL_ROW_0_41
*395 TAP_TAPCELL_ROW_0_42
*396 TAP_TAPCELL_ROW_0_43
*397 TAP_TAPCELL_ROW_10_62
*398 TAP_TAPCELL_ROW_10_63
*399 TAP_TAPCELL_ROW_11_64
*400 TAP_TAPCELL_ROW_11_65
*401 TAP_TAPCELL_ROW_12_66
*402 TAP_TAPCELL_ROW_12_67
*403 TAP_TAPCELL_ROW_13_68
*404 TAP_TAPCELL_ROW_13_69
*405 TAP_TAPCELL_ROW_14_70
*406 TAP_TAPCELL_ROW_14_71
*407 TAP_TAPCELL_ROW_15_72
*408 TAP_TAPCELL_ROW_15_73
*409 TAP_TAPCELL_ROW_16_74
*410 TAP_TAPCELL_ROW_16_75
*411 TAP_TAPCELL_ROW_17_76
*412 TAP_TAPCELL_ROW_17_77
*413 TAP_TAPCELL_ROW_18_78
*414 TAP_TAPCELL_ROW_18_79
*415 TAP_TAPCELL_ROW_19_80
*416 TAP_TAPCELL_ROW_19_81
*417 TAP_TAPCELL_ROW_19_82
*418 TAP_TAPCELL_ROW_19_83
*419 TAP_TAPCELL_ROW_1_44
*420 TAP_TAPCELL_ROW_1_45
*421 TAP_TAPCELL_ROW_2_46
*422 TAP_TAPCELL_ROW_2_47
*423 TAP_TAPCELL_ROW_3_48
*424 TAP_TAPCELL_ROW_3_49
*425 TAP_TAPCELL_ROW_4_50
*426 TAP_TAPCELL_ROW_4_51
*427 TAP_TAPCELL_ROW_5_52
*428 TAP_TAPCELL_ROW_5_53
*429 TAP_TAPCELL_ROW_6_54
*430 TAP_TAPCELL_ROW_6_55
*431 TAP_TAPCELL_ROW_7_56
*432 TAP_TAPCELL_ROW_7_57
*433 TAP_TAPCELL_ROW_8_58
*434 TAP_TAPCELL_ROW_8_59
*435 TAP_TAPCELL_ROW_9_60
*436 TAP_TAPCELL_ROW_9_61
*437 _110_
*438 _111_
*439 _112_
*440 _113_
*441 _114_
*442 _115_
*443 _116_
*444 _117_
*445 _118_
*446 _119_
*447 _120_
*448 _121_
*449 _122_
*450 _123_
*451 _124_
*452 _125_
*453 _126_
*454 _127_
*455 _128_
*456 _129_
*457 _130_
*458 _131_
*459 _132_
*460 _133_
*461 _134_
*462 _135_
*463 _136_
*464 _137_
*465 _138_
*466 _139_
*467 _140_
*468 _141_
*469 _142_
*470 _143_
*471 _144_
*472 _145_
*473 _146_
*474 _147_
*475 _148_
*476 _149_
*477 _150_
*478 _151_
*479 _152_
*480 _153_
*481 _154_
*482 _155_
*483 _156_
*484 _157_
*485 _158_
*486 _159_
*487 _160_
*488 _161_
*489 _162_
*490 _163_
*491 _164_
*492 _165_
*493 _166_
*494 _167_
*495 _168_
*496 _169_
*497 _170_
*498 _171_
*499 _172_
*500 _173_
*501 _174_
*502 _175_
*503 _176_
*504 _177_
*505 _178_
*506 _179_
*507 _180_
*508 _181_
*509 _182_
*510 _183_
*511 _184_
*512 _185_
*513 _186_
*514 _187_
*515 _188_
*516 _189_
*517 _190_
*518 _191_
*519 _192_
*520 _193_
*521 _194_
*522 _195_
*523 _196_
*524 _197_
*525 _198_
*526 _199_
*527 _200_
*528 _201_
*529 _202_
*530 _203_
*531 _204_
*532 _205_
*533 _206_
*534 _207_
*535 _208_
*536 _209_
*537 _210_
*538 _211_
*539 _212_
*540 _213_
*541 _214_
*542 _215_
*543 _216_
*544 _217_
*545 _218_
*546 _219_
*547 _220_
*548 _221_
*549 _222_
*550 _223_
*551 _224_
*552 _225_
*553 _226_
*554 _227_
*555 _228_
*556 _229_
*557 _230_
*558 _231_
*559 _232_
*560 _233_
*561 _234_
*562 _235_
*563 _236_
*564 _237_
*565 _238_
*566 _239_
*567 _240_
*568 _241_
*569 _242_
*570 _243_
*571 _244_
*572 _245_
*573 _246_
*574 _247_
*575 _248_
*576 _249_
*577 _250_
*578 clkbuf_0_clk
*579 clkbuf_2_0__f_clk
*580 clkbuf_2_1__f_clk
*581 clkbuf_2_2__f_clk
*582 clkbuf_2_3__f_clk
*583 clkload0
*584 clkload1
*585 clkload2
*586 fanout13
*587 fanout14
*588 fanout15
*589 fanout16
*590 fanout17
*591 fanout18
*592 hold1
*593 hold10
*594 hold11
*595 hold12
*596 hold13
*597 hold14
*598 hold15
*599 hold16
*600 hold17
*601 hold18
*602 hold19
*603 hold2
*604 hold3
*605 hold4
*606 hold5
*607 hold6
*608 hold7
*609 hold8
*610 hold9
*611 input1
*612 input10
*613 input2
*614 input3
*615 input4
*616 input5
*617 input6
*618 input7
*619 input8
*620 input9
*621 output11
*622 output12

*PORTS
busy O
clk I
data_in[0] I
data_in[1] I
data_in[2] I
data_in[3] I
data_in[4] I
data_in[5] I
data_in[6] I
data_in[7] I
en I
rst I
tx O

*D_NET *3 0.00196419
*CONN
*P busy O
*I *621:X O *D sky130_fd_sc_hd__buf_2
*CAP
1 busy 0.000915498
2 *621:X 0.000915498
3 busy *565:D 4.61926e-05
4 busy *565:RESET_B 6.4259e-05
5 busy *620:A 0
6 busy *621:A 2.27416e-05
*RES
1 *621:X busy 28.4964 
*END

*D_NET *4 0.00524552
*CONN
*P clk I
*I *578:A I *D sky130_fd_sc_hd__clkbuf_16
*CAP
1 clk 0.0017208
2 *578:A 0
3 *4:15 0.0017208
4 *4:15 *507:A 2.14757e-05
5 *4:15 *507:B 5.8148e-05
6 *4:15 *509:A 5.33005e-05
7 *4:15 *553:CLK 0.000686728
8 *4:15 *553:D 2.59355e-05
9 *4:15 *553:RESET_B 0
10 *4:15 *554:D 5.52302e-05
11 *4:15 *591:A 0.000185616
12 *4:15 *612:A 0.000138496
13 *4:15 *109:10 0.00031189
14 *4:15 *135:12 0.00026711
15 *4:15 *151:10 0
*RES
1 clk *4:15 42.1258 
2 *4:15 *578:A 9.3 
*END

*D_NET *5 0.000664459
*CONN
*P data_in[0] I
*I *611:A I *D sky130_fd_sc_hd__clkbuf_1
*CAP
1 data_in[0] 0.000275627
2 *611:A 0.000275627
3 *611:A *474:A0 2.06112e-05
4 *611:A *617:A 9.25943e-05
5 *611:A *91:48 0
*RES
1 data_in[0] *611:A 18.8741 
*END

*D_NET *6 0.000434687
*CONN
*P data_in[1] I
*I *613:A I *D sky130_fd_sc_hd__clkbuf_1
*CAP
1 data_in[1] 0.000142482
2 *613:A 0.000142482
3 *613:A *523:C 0
4 *613:A *572:RESET_B 2.8266e-06
5 *613:A *616:A 7.3448e-05
6 *613:A *619:A 7.3448e-05
*RES
1 data_in[1] *613:A 18.0508 
*END

*D_NET *7 0.00140049
*CONN
*P data_in[2] I
*I *614:A I *D sky130_fd_sc_hd__clkbuf_1
*CAP
1 data_in[2] 0.00060067
2 *614:A 0.00060067
3 *614:A *473:A1 5.62995e-05
4 *614:A *605:A 0.000142856
5 *614:A *615:A 0
*RES
1 data_in[2] *614:A 26.4429 
*END

*D_NET *8 0.00104975
*CONN
*P data_in[3] I
*I *615:A I *D sky130_fd_sc_hd__clkbuf_1
*CAP
1 data_in[3] 0.000524875
2 *615:A 0.000524875
3 *614:A *615:A 0
*RES
1 data_in[3] *615:A 24.2643 
*END

*D_NET *9 0.000641282
*CONN
*P data_in[4] I
*I *616:A I *D sky130_fd_sc_hd__clkbuf_1
*CAP
1 data_in[4] 0.000209963
2 *616:A 0.000209963
3 *616:A *474:A0 8.15939e-05
4 *616:A *617:A 6.6313e-05
5 *613:A *616:A 7.3448e-05
*RES
1 data_in[4] *616:A 19.8722 
*END

*D_NET *10 0.000874722
*CONN
*P data_in[5] I
*I *617:A I *D sky130_fd_sc_hd__clkbuf_1
*CAP
1 data_in[5] 0.000291354
2 *617:A 0.000291354
3 *617:A *474:A0 0.000133107
4 *611:A *617:A 9.25943e-05
5 *616:A *617:A 6.6313e-05
*RES
1 data_in[5] *617:A 21.6936 
*END

*D_NET *11 0.000971574
*CONN
*P data_in[6] I
*I *618:A I *D sky130_fd_sc_hd__clkbuf_1
*CAP
1 data_in[6] 0.000453339
2 *618:A 0.000453339
3 *618:A *447:A 6.48957e-05
4 *618:A *605:A 0
5 *618:A *609:A 0
6 *618:A *619:A 0
*RES
1 data_in[6] *618:A 23.2115 
*END

*D_NET *12 0.00101677
*CONN
*P data_in[7] I
*I *619:A I *D sky130_fd_sc_hd__clkbuf_1
*CAP
1 data_in[7] 0.000383194
2 *619:A 0.000383194
3 *619:A *524:B 0
4 *619:A *524:C 0.000164994
5 *619:A *574:RESET_B 1.19402e-05
6 *613:A *619:A 7.3448e-05
7 *618:A *619:A 0
*RES
1 data_in[7] *619:A 21.6936 
*END

*D_NET *13 0.00156838
*CONN
*P en I
*I *620:A I *D sky130_fd_sc_hd__dlymetal6s2s_1
*CAP
1 en 0.000559683
2 *620:A 0.000559683
3 *620:A *481:B 0.000186669
4 *620:A *546:A 7.80714e-06
5 *620:A *565:CLK 0.00025454
6 busy *620:A 0
*RES
1 en *620:A 26.2821 
*END

*D_NET *14 0.000565378
*CONN
*P rst I
*I *612:A I *D sky130_fd_sc_hd__clkbuf_1
*CAP
1 rst 0.000208639
2 *612:A 0.000208639
3 *612:A *591:A 9.60337e-06
4 *4:15 *612:A 0.000138496
*RES
1 rst *612:A 18.73 
*END

*D_NET *15 0.000516155
*CONN
*P tx O
*I *622:X O *D sky130_fd_sc_hd__buf_2
*CAP
1 tx 0.000253276
2 *622:X 0.000253276
3 tx *441:A 0
4 tx *622:A 9.60337e-06
*RES
1 *622:X tx 18.1949 
*END

*D_NET *16 0.00142431
*CONN
*I *561:D I *D sky130_fd_sc_hd__dfstp_2
*I *486:X O *D sky130_fd_sc_hd__a22o_1
*CAP
1 *561:D 0.000376715
2 *486:X 0.000376715
3 *561:D *480:A0 0
4 *561:D *566:D 4.25622e-05
5 *561:D *567:CLK 0.000123288
6 *561:D *91:35 0
7 *561:D *142:83 0.000220441
8 *561:D *142:122 0.000177948
9 *561:D *170:8 5.33005e-05
10 *561:D *193:6 5.33433e-05
*RES
1 *486:X *561:D 35.5821 
*END

*D_NET *17 0.0014584
*CONN
*I *562:D I *D sky130_fd_sc_hd__dfrtp_1
*I *485:X O *D sky130_fd_sc_hd__a22o_1
*CAP
1 *562:D 0.000526382
2 *485:X 0.000526382
3 *562:D *482:A 7.17235e-05
4 *562:D *482:B 1.32552e-05
5 *562:D *485:B1 6.97409e-05
6 *562:D *563:D 9.24299e-05
7 *562:D *580:A 0.000103267
8 *562:D *584:A 5.52238e-05
9 *562:D *142:16 0
10 *562:D *142:40 0
*RES
1 *485:X *562:D 36.5107 
*END

*D_NET *18 0.000825367
*CONN
*I *563:D I *D sky130_fd_sc_hd__dfrtp_1
*I *484:X O *D sky130_fd_sc_hd__a21bo_1
*CAP
1 *563:D 0.000299213
2 *484:X 0.000299213
3 *563:D *563:CLK 9.56968e-05
4 *563:D *580:A 3.88139e-05
5 *562:D *563:D 9.24299e-05
*RES
1 *484:X *563:D 33.1357 
*END

*D_NET *19 0.00176744
*CONN
*I *564:D I *D sky130_fd_sc_hd__dfrtp_1
*I *483:X O *D sky130_fd_sc_hd__a22o_1
*CAP
1 *564:D 0.000568748
2 *483:X 0.000568748
3 *564:D *480:A0 0
4 *564:D *483:A1 5.71472e-05
5 *564:D *484:B1_N 2.26424e-05
6 *564:D *567:CLK 0
7 *564:D *604:A 0
8 *564:D *91:10 7.83587e-05
9 *564:D *126:55 3.69697e-05
10 *564:D *142:83 0
11 *564:D *142:93 0
12 *564:D *142:122 0
13 *564:D *170:10 8.27532e-05
14 *564:D *181:8 0
15 *564:D *193:23 1.37292e-05
16 *564:D *193:29 0.000338344
*RES
1 *483:X *564:D 38.1893 
*END

*D_NET *20 0.000586595
*CONN
*I *547:D I *D sky130_fd_sc_hd__dfrtp_2
*I *493:Y O *D sky130_fd_sc_hd__inv_2
*CAP
1 *547:D 0.00020673
2 *493:Y 0.00020673
3 *547:D *547:CLK 3.0285e-05
4 *547:D *579:A 5.71472e-05
5 *547:D *580:A 8.57023e-05
6 *547:D *95:10 0
7 *547:D *151:72 0
*RES
1 *493:Y *547:D 30.9036 
*END

*D_NET *21 0.000476789
*CONN
*I *548:D I *D sky130_fd_sc_hd__dfrtp_1
*I *455:Y O *D sky130_fd_sc_hd__inv_2
*CAP
1 *548:D 0.000219421
2 *455:Y 0.000219421
3 *548:D *141:33 3.79467e-05
4 *548:D *151:32 0
*RES
1 *455:Y *548:D 30.7071 
*END

*D_NET *22 0.000353833
*CONN
*I *558:D I *D sky130_fd_sc_hd__dfrtp_1
*I *517:X O *D sky130_fd_sc_hd__o211a_1
*CAP
1 *558:D 6.83394e-05
2 *517:X 6.83394e-05
3 *558:D *517:A1 1.15172e-05
4 *558:D *558:CLK 6.86792e-05
5 *558:D *581:A 0.000136958
*RES
1 *517:X *558:D 20.3679 
*END

*D_NET *23 0.00162025
*CONN
*I *559:D I *D sky130_fd_sc_hd__dfrtp_1
*I *519:Y O *D sky130_fd_sc_hd__a22oi_1
*CAP
1 *559:D 0.000220257
2 *519:Y 0.000220257
3 *559:D *515:A1 5.49489e-05
4 *559:D *515:A2 9.66977e-05
5 *559:D *519:A2 0
6 *559:D *519:B1 0.000476569
7 *559:D *109:65 2.12087e-05
8 *559:D *109:73 2.94103e-05
9 *559:D *139:12 0.000197991
10 *559:D *139:14 0.000183093
11 *559:D *139:37 9.3242e-05
12 *559:D *143:30 2.65754e-05
*RES
1 *519:Y *559:D 35.6536 
*END

*D_NET *24 0.000478088
*CONN
*I *560:D I *D sky130_fd_sc_hd__dfrtp_1
*I *522:X O *D sky130_fd_sc_hd__and3_1
*CAP
1 *560:D 0.000137393
2 *522:X 0.000137393
3 *560:D *517:C1 6.05161e-06
4 *560:D *522:A 0.000126439
5 *560:D *560:RESET_B 0
6 *560:D *130:10 1.55885e-05
7 *560:D *154:37 5.52238e-05
*RES
1 *522:X *560:D 30.3143 
*END

*D_NET *25 0.000786174
*CONN
*I *549:D I *D sky130_fd_sc_hd__dfrtp_1
*I *495:Y O *D sky130_fd_sc_hd__nor2_1
*CAP
1 *549:D 0.000364281
2 *495:Y 0.000364281
3 *549:D *549:RESET_B 5.76121e-05
4 *549:D *151:32 0
*RES
1 *495:Y *549:D 32.35 
*END

*D_NET *26 0.00026166
*CONN
*I *550:D I *D sky130_fd_sc_hd__dfrtp_1
*I *496:X O *D sky130_fd_sc_hd__xor2_1
*CAP
1 *550:D 3.78828e-05
2 *496:X 3.78828e-05
3 *550:D *496:A 0.000105163
4 *550:D *550:CLK 8.07313e-05
*RES
1 *496:X *550:D 20.3679 
*END

*D_NET *27 0.00133869
*CONN
*I *551:D I *D sky130_fd_sc_hd__dfrtp_1
*I *498:X O *D sky130_fd_sc_hd__a21bo_1
*CAP
1 *551:D 0.000473015
2 *498:X 0.000473015
3 *551:D *498:A2 0.000140882
4 *551:D *498:B1_N 3.92757e-05
5 *551:D *499:C 0.000122712
6 *551:D *499:D 8.20547e-05
7 *551:D *550:CLK 0
8 *551:D *99:14 7.73283e-06
9 *551:D *141:77 0
*RES
1 *498:X *551:D 36.3321 
*END

*D_NET *28 0.000643034
*CONN
*I *552:D I *D sky130_fd_sc_hd__dfrtp_1
*I *502:X O *D sky130_fd_sc_hd__and3_1
*CAP
1 *552:D 0.000295213
2 *502:X 0.000295213
3 *552:D *552:RESET_B 0
4 *552:D *151:10 5.26091e-05
*RES
1 *502:X *552:D 32.5464 
*END

*D_NET *29 0.00131095
*CONN
*I *553:D I *D sky130_fd_sc_hd__dfrtp_1
*I *504:Y O *D sky130_fd_sc_hd__a21oi_1
*CAP
1 *553:D 0.0002057
2 *504:Y 0.0002057
3 *553:D *502:B 0.000281541
4 *553:D *504:A1 7.83659e-05
5 *553:D *588:A 0
6 *553:D *99:50 0.000460406
7 *553:D *103:8 5.33005e-05
8 *4:15 *553:D 2.59355e-05
*RES
1 *504:Y *553:D 34.5643 
*END

*D_NET *30 0.00203594
*CONN
*I *554:D I *D sky130_fd_sc_hd__dfrtp_1
*I *507:X O *D sky130_fd_sc_hd__and3_1
*CAP
1 *554:D 0.000558209
2 *507:X 0.000558209
3 *554:D *500:B 4.73659e-05
4 *554:D *501:A 7.92975e-05
5 *554:D *503:A 0.000164039
6 *554:D *505:B 0.000189681
7 *554:D *507:B 7.02483e-05
8 *554:D *554:CLK 0.00029722
9 *554:D *135:34 4.16955e-06
10 *554:D *136:8 1.22652e-05
11 *4:15 *554:D 5.52302e-05
*RES
1 *507:X *554:D 38.8902 
*END

*D_NET *31 0.00157289
*CONN
*I *555:D I *D sky130_fd_sc_hd__dfrtp_1
*I *510:Y O *D sky130_fd_sc_hd__a21oi_1
*CAP
1 *555:D 0.000289927
2 *510:Y 0.000289927
3 *555:D *491:A 0.000274932
4 *555:D *491:B 4.15914e-05
5 *555:D *491:C 0.000309647
6 *555:D *510:A2 4.4873e-05
7 *555:D *555:CLK 0.000148903
8 *555:D *109:10 0
9 *555:D *143:43 0.00017309
*RES
1 *510:Y *555:D 35.4929 
*END

*D_NET *32 0.000621205
*CONN
*I *556:D I *D sky130_fd_sc_hd__dfrtp_1
*I *513:Y O *D sky130_fd_sc_hd__nor2_1
*CAP
1 *556:D 0.000138301
2 *513:Y 0.000138301
3 *556:D *512:B 5.26091e-05
4 *556:D *556:CLK 0.000291993
*RES
1 *513:Y *556:D 31.3679 
*END

*D_NET *33 0.00073782
*CONN
*I *557:D I *D sky130_fd_sc_hd__dfrtp_1
*I *515:X O *D sky130_fd_sc_hd__o21ba_1
*CAP
1 *557:D 0.000344781
2 *515:X 0.000344781
3 *557:D *557:CLK 4.57445e-05
4 *557:D *109:65 2.51343e-06
*RES
1 *515:X *557:D 32.2429 
*END

*D_NET *34 0.00100416
*CONN
*I *547:RESET_B I *D sky130_fd_sc_hd__dfrtp_2
*I *459:Y O *D sky130_fd_sc_hd__inv_2
*CAP
1 *547:RESET_B 0.000366409
2 *459:Y 0.000366409
3 *547:RESET_B *547:CLK 0.000271345
*RES
1 *459:Y *547:RESET_B 14.4339 
*END

*D_NET *35 0.000683668
*CONN
*I *548:RESET_B I *D sky130_fd_sc_hd__dfrtp_1
*I *532:Y O *D sky130_fd_sc_hd__inv_2
*CAP
1 *548:RESET_B 0.00022822
2 *532:Y 0.00022822
3 *548:RESET_B *455:A 5.33433e-05
4 *548:RESET_B *494:A 5.52238e-05
5 *548:RESET_B *495:B 6.97972e-05
6 *548:RESET_B *151:21 0
7 *548:RESET_B *151:32 0
8 *548:RESET_B *155:6 4.88637e-05
*RES
1 *532:Y *548:RESET_B 23.0321 
*END

*D_NET *36 0.000724023
*CONN
*I *549:RESET_B I *D sky130_fd_sc_hd__dfrtp_1
*I *533:Y O *D sky130_fd_sc_hd__inv_2
*CAP
1 *549:RESET_B 0.000281456
2 *533:Y 0.000281456
3 *549:RESET_B *495:A 9.90367e-05
4 *549:RESET_B *495:B 0
5 *549:RESET_B *550:CLK 0
6 *549:RESET_B *94:18 4.46186e-06
7 *549:RESET_B *151:38 0
8 *549:D *549:RESET_B 5.76121e-05
*RES
1 *533:Y *549:RESET_B 23.1393 
*END

*D_NET *37 0.000403289
*CONN
*I *550:RESET_B I *D sky130_fd_sc_hd__dfrtp_1
*I *534:Y O *D sky130_fd_sc_hd__inv_2
*CAP
1 *550:RESET_B 0.000155896
2 *534:Y 0.000155896
3 *550:RESET_B *496:A 3.46261e-05
4 *550:RESET_B *94:18 5.68713e-05
*RES
1 *534:Y *550:RESET_B 21.0857 
*END

*D_NET *38 0.000379168
*CONN
*I *551:RESET_B I *D sky130_fd_sc_hd__dfrtp_1
*I *535:Y O *D sky130_fd_sc_hd__inv_2
*CAP
1 *551:RESET_B 0.00010774
2 *535:Y 0.00010774
3 *551:RESET_B *499:C 2.27553e-05
4 *551:RESET_B *151:57 0.000140933
*RES
1 *535:Y *551:RESET_B 11.4161 
*END

*D_NET *39 0.000881591
*CONN
*I *552:RESET_B I *D sky130_fd_sc_hd__dfrtp_1
*I *536:Y O *D sky130_fd_sc_hd__inv_2
*CAP
1 *552:RESET_B 0.000193471
2 *536:Y 0.000193471
3 *552:RESET_B *502:A 7.43578e-06
4 *552:RESET_B *502:B 0.000177941
5 *552:RESET_B *502:C 3.79027e-05
6 *552:RESET_B *141:31 0.000216145
7 *552:RESET_B *151:10 0
8 *552:RESET_B *151:21 5.52238e-05
9 *552:D *552:RESET_B 0
*RES
1 *536:Y *552:RESET_B 23.7464 
*END

*D_NET *40 0.000351947
*CONN
*I *553:RESET_B I *D sky130_fd_sc_hd__dfrtp_1
*I *537:Y O *D sky130_fd_sc_hd__inv_2
*CAP
1 *553:RESET_B 0.000172948
2 *537:Y 0.000172948
3 *553:RESET_B *537:A 6.05161e-06
4 *553:RESET_B *151:10 0
5 *4:15 *553:RESET_B 0
*RES
1 *537:Y *553:RESET_B 21.0857 
*END

*D_NET *41 0.000429066
*CONN
*I *554:RESET_B I *D sky130_fd_sc_hd__dfrtp_1
*I *538:Y O *D sky130_fd_sc_hd__inv_2
*CAP
1 *554:RESET_B 7.55236e-05
2 *538:Y 7.55236e-05
3 *554:RESET_B *136:8 0.000135163
4 *554:RESET_B *151:72 0.000142856
*RES
1 *538:Y *554:RESET_B 11.4161 
*END

*D_NET *42 0.000574411
*CONN
*I *555:RESET_B I *D sky130_fd_sc_hd__dfrtp_1
*I *539:Y O *D sky130_fd_sc_hd__inv_2
*CAP
1 *555:RESET_B 0.000143455
2 *539:Y 0.000143455
3 *555:RESET_B *508:A 0.000138106
4 *555:RESET_B *540:A 9.41642e-05
5 *555:RESET_B *151:87 5.52302e-05
*RES
1 *539:Y *555:RESET_B 12.2375 
*END

*D_NET *43 0.00088088
*CONN
*I *556:RESET_B I *D sky130_fd_sc_hd__dfrtp_1
*I *540:Y O *D sky130_fd_sc_hd__inv_2
*CAP
1 *556:RESET_B 0.000332692
2 *540:Y 0.000332692
3 *556:RESET_B *556:CLK 9.90431e-05
4 *556:RESET_B *138:10 0.000116454
*RES
1 *540:Y *556:RESET_B 14.0232 
*END

*D_NET *44 0.0014454
*CONN
*I *557:RESET_B I *D sky130_fd_sc_hd__dfrtp_1
*I *541:Y O *D sky130_fd_sc_hd__inv_2
*CAP
1 *557:RESET_B 0.000438719
2 *541:Y 0.000438719
3 *557:RESET_B *511:B 0.000268403
4 *557:RESET_B *109:73 0.00027068
5 *557:RESET_B *139:12 2.88759e-05
*RES
1 *541:Y *557:RESET_B 17.1661 
*END

*D_NET *45 0.000570723
*CONN
*I *558:RESET_B I *D sky130_fd_sc_hd__dfrtp_1
*I *542:Y O *D sky130_fd_sc_hd__inv_2
*CAP
1 *558:RESET_B 4.95838e-05
2 *542:Y 4.95838e-05
3 *558:RESET_B *582:A 0.000207903
4 *558:RESET_B *154:45 0.000263652
*RES
1 *542:Y *558:RESET_B 11.8268 
*END

*D_NET *46 0.00119672
*CONN
*I *559:RESET_B I *D sky130_fd_sc_hd__dfrtp_1
*I *543:Y O *D sky130_fd_sc_hd__inv_2
*CAP
1 *559:RESET_B 0.000227717
2 *543:Y 0.000227717
3 *559:RESET_B *489:C_N 2.89114e-05
4 *559:RESET_B *517:A1 0.000114527
5 *559:RESET_B *518:C 4.70821e-05
6 *559:RESET_B *540:A 0.000295137
7 *559:RESET_B *129:6 8.66063e-05
8 *559:RESET_B *140:36 0.000101545
9 *559:RESET_B *144:66 0
10 *559:RESET_B *154:45 6.74815e-05
*RES
1 *543:Y *559:RESET_B 24.7196 
*END

*D_NET *47 0.000274189
*CONN
*I *560:RESET_B I *D sky130_fd_sc_hd__dfrtp_1
*I *544:Y O *D sky130_fd_sc_hd__inv_2
*CAP
1 *560:RESET_B 8.80931e-05
2 *544:Y 8.80931e-05
3 *560:RESET_B *522:A 0
4 *560:RESET_B *99:50 0
5 *560:RESET_B *154:23 9.80029e-05
6 *560:D *560:RESET_B 0
*RES
1 *544:Y *560:RESET_B 20.55 
*END

*D_NET *48 0.000524047
*CONN
*I *561:SET_B I *D sky130_fd_sc_hd__dfstp_2
*I *545:Y O *D sky130_fd_sc_hd__inv_2
*CAP
1 *561:SET_B 8.08929e-05
2 *545:Y 8.08929e-05
3 *561:SET_B *439:A 0.000175519
4 *561:SET_B *481:C 0.000177227
5 *561:SET_B *193:6 9.51514e-06
*RES
1 *545:Y *561:SET_B 21.0232 
*END

*D_NET *49 0.000705685
*CONN
*I *562:RESET_B I *D sky130_fd_sc_hd__dfrtp_1
*I *546:Y O *D sky130_fd_sc_hd__inv_2
*CAP
1 *562:RESET_B 0.000223515
2 *546:Y 0.000223515
3 *562:RESET_B *481:B 0.000199691
4 *562:RESET_B *546:A 3.57844e-05
5 *562:RESET_B *194:19 2.31791e-05
*RES
1 *546:Y *562:RESET_B 22.9518 
*END

*D_NET *50 0.000848977
*CONN
*I *563:RESET_B I *D sky130_fd_sc_hd__dfrtp_1
*I *437:Y O *D sky130_fd_sc_hd__inv_2
*CAP
1 *563:RESET_B 0.000244418
2 *437:Y 0.000244418
3 *563:RESET_B *437:A 2.89114e-05
4 *563:RESET_B *481:B 2.22999e-05
5 *563:RESET_B *546:A 0.000100831
6 *563:RESET_B *604:A 0.000177815
7 *563:RESET_B *181:8 3.0285e-05
*RES
1 *437:Y *563:RESET_B 23.1125 
*END

*D_NET *51 0.00173218
*CONN
*I *564:RESET_B I *D sky130_fd_sc_hd__dfrtp_1
*I *438:Y O *D sky130_fd_sc_hd__inv_2
*CAP
1 *564:RESET_B 0.000426618
2 *438:Y 0.000426618
3 *564:RESET_B *439:A 1.69115e-05
4 *564:RESET_B *481:A 0.000101445
5 *564:RESET_B *481:C 0.000318316
6 *564:RESET_B *566:SET_B 0
7 *564:RESET_B *597:A 0.000405547
8 *564:RESET_B *152:101 3.67257e-05
*RES
1 *438:Y *564:RESET_B 29.5768 
*END

*D_NET *52 0.000897091
*CONN
*I *565:RESET_B I *D sky130_fd_sc_hd__dfrtp_1
*I *439:Y O *D sky130_fd_sc_hd__inv_2
*CAP
1 *565:RESET_B 0.000121632
2 *439:Y 0.000121632
3 *565:RESET_B *565:D 0.000532421
4 *565:RESET_B *621:A 5.71472e-05
5 busy *565:RESET_B 6.4259e-05
*RES
1 *439:Y *565:RESET_B 14.2911 
*END

*D_NET *53 0.000440246
*CONN
*I *566:SET_B I *D sky130_fd_sc_hd__dfstp_1
*I *440:Y O *D sky130_fd_sc_hd__inv_2
*CAP
1 *566:SET_B 0.000199327
2 *440:Y 0.000199327
3 *566:SET_B *622:A 4.15914e-05
4 *564:RESET_B *566:SET_B 0
*RES
1 *440:Y *566:SET_B 21.8446 
*END

*D_NET *54 0.000169687
*CONN
*I *567:RESET_B I *D sky130_fd_sc_hd__dfrtp_1
*I *441:Y O *D sky130_fd_sc_hd__inv_2
*CAP
1 *567:RESET_B 8.48433e-05
2 *441:Y 8.48433e-05
3 *567:RESET_B *91:35 0
*RES
1 *441:Y *567:RESET_B 19.6393 
*END

*D_NET *55 0.000409277
*CONN
*I *568:RESET_B I *D sky130_fd_sc_hd__dfrtp_1
*I *442:Y O *D sky130_fd_sc_hd__inv_2
*CAP
1 *568:RESET_B 0.000146934
2 *442:Y 0.000146934
3 *568:RESET_B *442:A 1.92789e-05
4 *568:RESET_B *123:20 9.24395e-05
5 *568:RESET_B *152:16 3.69047e-06
*RES
1 *442:Y *568:RESET_B 21.0857 
*END

*D_NET *56 0.00204619
*CONN
*I *569:RESET_B I *D sky130_fd_sc_hd__dfrtp_1
*I *443:Y O *D sky130_fd_sc_hd__inv_2
*CAP
1 *569:RESET_B 0.00057534
2 *443:Y 0.00057534
3 *569:RESET_B *443:A 5.33005e-05
4 *569:RESET_B *473:A1 9.90431e-05
5 *569:RESET_B *473:S 0.000230762
6 *569:RESET_B *476:A1 0.00014183
7 *569:RESET_B *573:D 0.000188586
8 *569:RESET_B *593:A 0.000117553
9 *569:RESET_B *153:75 6.44345e-05
*RES
1 *443:Y *569:RESET_B 21.2732 
*END

*D_NET *57 0.00133205
*CONN
*I *570:RESET_B I *D sky130_fd_sc_hd__dfrtp_1
*I *444:Y O *D sky130_fd_sc_hd__inv_2
*CAP
1 *570:RESET_B 0.000284303
2 *444:Y 0.000284303
3 *570:RESET_B *574:CLK 5.33005e-05
4 *570:RESET_B *123:20 0.000396898
5 *570:RESET_B *188:8 0.000313241
*RES
1 *444:Y *570:RESET_B 16.3804 
*END

*D_NET *58 0.000441277
*CONN
*I *571:RESET_B I *D sky130_fd_sc_hd__dfrtp_1
*I *445:Y O *D sky130_fd_sc_hd__inv_2
*CAP
1 *571:RESET_B 0.000106274
2 *445:Y 0.000106274
3 *571:RESET_B *475:A0 9.40141e-05
4 *571:RESET_B *189:8 0.000134714
*RES
1 *445:Y *571:RESET_B 11.8268 
*END

*D_NET *59 0.000817674
*CONN
*I *572:RESET_B I *D sky130_fd_sc_hd__dfrtp_1
*I *446:Y O *D sky130_fd_sc_hd__inv_2
*CAP
1 *572:RESET_B 0.000331681
2 *446:Y 0.000331681
3 *572:RESET_B *523:C 0.000132208
4 *572:RESET_B *603:A 0
5 *572:RESET_B *190:6 1.92789e-05
6 *613:A *572:RESET_B 2.8266e-06
*RES
1 *446:Y *572:RESET_B 24.0054 
*END

*D_NET *60 0.00034958
*CONN
*I *573:RESET_B I *D sky130_fd_sc_hd__dfrtp_1
*I *447:Y O *D sky130_fd_sc_hd__inv_2
*CAP
1 *573:RESET_B 0.000145126
2 *447:Y 0.000145126
3 *573:RESET_B *443:A 4.85567e-05
4 *573:RESET_B *191:8 1.07719e-05
*RES
1 *447:Y *573:RESET_B 11.4161 
*END

*D_NET *61 0.000796975
*CONN
*I *574:RESET_B I *D sky130_fd_sc_hd__dfrtp_1
*I *448:Y O *D sky130_fd_sc_hd__inv_2
*CAP
1 *574:RESET_B 0.000205905
2 *448:Y 0.000205905
3 *574:RESET_B *472:A0 4.17856e-05
4 *574:RESET_B *525:A3 0.000216457
5 *574:RESET_B *609:A 0.000102545
6 *574:RESET_B *153:75 1.24368e-05
7 *619:A *574:RESET_B 1.19402e-05
*RES
1 *448:Y *574:RESET_B 22.7911 
*END

*D_NET *62 0.000221827
*CONN
*I *575:RESET_B I *D sky130_fd_sc_hd__dfrtp_1
*I *449:Y O *D sky130_fd_sc_hd__inv_2
*CAP
1 *575:RESET_B 5.96411e-05
2 *449:Y 5.96411e-05
3 *575:RESET_B *449:A 0.000102545
*RES
1 *449:Y *575:RESET_B 19.6393 
*END

*D_NET *63 0.000169687
*CONN
*I *576:RESET_B I *D sky130_fd_sc_hd__dfrtp_1
*I *450:Y O *D sky130_fd_sc_hd__inv_2
*CAP
1 *576:RESET_B 8.48433e-05
2 *450:Y 8.48433e-05
3 *576:RESET_B *449:A 0
4 *576:RESET_B *152:33 0
*RES
1 *450:Y *576:RESET_B 19.6393 
*END

*D_NET *64 0.000722193
*CONN
*I *577:RESET_B I *D sky130_fd_sc_hd__dfrtp_1
*I *451:Y O *D sky130_fd_sc_hd__inv_2
*CAP
1 *577:RESET_B 0.000147787
2 *451:Y 0.000147787
3 *577:RESET_B *462:A 5.41794e-05
4 *577:RESET_B *483:B2 6.09476e-05
5 *577:RESET_B *577:D 0.000179833
6 *577:RESET_B *184:6 5.33005e-05
7 *577:RESET_B *194:39 7.83587e-05
*RES
1 *451:Y *577:RESET_B 22.0589 
*END

*D_NET *65 0.00269256
*CONN
*I *565:D I *D sky130_fd_sc_hd__dfrtp_1
*I *481:X O *D sky130_fd_sc_hd__or3_1
*CAP
1 *565:D 0.00101503
2 *481:X 0.00101503
3 *565:D *439:A 8.39e-05
4 busy *565:D 4.61926e-05
5 *565:RESET_B *565:D 0.000532421
*RES
1 *481:X *565:D 42.2071 
*END
