*SPEF "ieee 1481-1999"
*DESIGN "top"
*DATE "20:56:54 Thursday February 05, 2026"
*VENDOR "The OpenROAD Project"
*PROGRAM "OpenROAD"
*VERSION "edf00dff99f6c40d67a30c0e22a8191c5d2ed9d6"
*DESIGN_FLOW "NAME_SCOPE LOCAL" "PIN_CAP NONE"
*DIVIDER /
*DELIMITER :
*BUS_DELIMITER []
*T_UNIT 1 NS
*C_UNIT 1 PF
*R_UNIT 1 OHM
*L_UNIT 1 HENRY

*NAME_MAP
*3 busy
*4 clk
*5 data_in[0]
*6 data_in[1]
*7 data_in[2]
*8 data_in[3]
*9 data_in[4]
*10 data_in[5]
*11 data_in[6]
*12 data_in[7]
*13 en
*14 rst
*15 tx
*16 _000_
*17 _001_
*18 _002_
*19 _003_
*20 _004_
*21 _005_
*22 _006_
*23 _007_
*24 _008_
*25 _009_
*26 _010_
*27 _011_
*28 _012_
*29 _013_
*30 _014_
*31 _015_
*32 _016_
*33 _017_
*34 _018_
*35 _019_
*36 _020_
*37 _021_
*38 _022_
*39 _023_
*40 _024_
*41 _025_
*42 _026_
*43 _027_
*44 _028_
*45 _029_
*46 _030_
*47 _031_
*48 _032_
*49 _033_
*50 _034_
*51 _035_
*52 _036_
*53 _037_
*54 _038_
*55 _039_
*56 _040_
*57 _041_
*58 _042_
*59 _043_
*60 _044_
*61 _045_
*62 _046_
*63 _047_
*64 _048_
*65 _049_
*66 _050_
*67 _051_
*68 _052_
*69 _053_
*70 _054_
*71 _055_
*72 _056_
*73 _057_
*74 _058_
*75 _059_
*76 _060_
*77 _061_
*78 _062_
*79 _063_
*80 _064_
*81 _065_
*82 _066_
*83 _067_
*84 _068_
*85 _069_
*86 _070_
*87 _071_
*88 _072_
*89 _073_
*90 _074_
*91 _075_
*92 _076_
*93 _077_
*94 _078_
*95 _079_
*96 _080_
*97 _081_
*98 _082_
*99 _083_
*100 _084_
*101 _085_
*102 _086_
*103 _087_
*104 _088_
*105 _089_
*106 _090_
*107 _091_
*108 _092_
*109 _093_
*110 _094_
*111 _095_
*112 _096_
*113 _097_
*114 _098_
*115 _099_
*116 _100_
*117 _101_
*118 _102_
*119 _103_
*120 _104_
*121 _105_
*122 _106_
*123 _107_
*124 _108_
*125 _109_
*126 baud_inst\.baud_tick
*127 baud_inst\.cnt\[0\]
*128 baud_inst\.cnt\[10\]
*129 baud_inst\.cnt\[11\]
*130 baud_inst\.cnt\[12\]
*131 baud_inst\.cnt\[1\]
*132 baud_inst\.cnt\[2\]
*133 baud_inst\.cnt\[3\]
*134 baud_inst\.cnt\[4\]
*135 baud_inst\.cnt\[5\]
*136 baud_inst\.cnt\[6\]
*137 baud_inst\.cnt\[7\]
*138 baud_inst\.cnt\[8\]
*139 baud_inst\.cnt\[9\]
*140 clknet_0_clk
*141 clknet_2_0__leaf_clk
*142 clknet_2_1__leaf_clk
*143 clknet_2_2__leaf_clk
*144 clknet_2_3__leaf_clk
*145 net1
*146 net10
*147 net11
*148 net12
*149 net13
*150 net14
*151 net15
*152 net16
*153 net17
*154 net18
*155 net19
*156 net2
*157 net20
*158 net21
*159 net22
*160 net23
*161 net24
*162 net25
*163 net26
*164 net27
*165 net28
*166 net29
*167 net3
*168 net30
*169 net31
*170 net32
*171 net33
*172 net34
*173 net35
*174 net36
*175 net37
*176 net38
*177 net4
*178 net5
*179 net6
*180 net7
*181 net8
*182 net9
*183 uart_tx_inst\.cnt\[0\]
*184 uart_tx_inst\.cnt\[1\]
*185 uart_tx_inst\.cnt\[2\]
*186 uart_tx_inst\.data_reg\[0\]
*187 uart_tx_inst\.data_reg\[1\]
*188 uart_tx_inst\.data_reg\[2\]
*189 uart_tx_inst\.data_reg\[3\]
*190 uart_tx_inst\.data_reg\[4\]
*191 uart_tx_inst\.data_reg\[5\]
*192 uart_tx_inst\.data_reg\[6\]
*193 uart_tx_inst\.data_reg\[7\]
*194 uart_tx_inst\.state\[0\]
*195 uart_tx_inst\.state\[1\]
*196 uart_tx_inst\.state\[2\]
*197 uart_tx_inst\.state\[3\]
*198 FILLER_0_109
*199 FILLER_0_113
*200 FILLER_0_119
*201 FILLER_0_13
*202 FILLER_0_17
*203 FILLER_0_25
*204 FILLER_0_36
*205 FILLER_0_48
*206 FILLER_0_57
*207 FILLER_0_6
*208 FILLER_0_69
*209 FILLER_0_76
*210 FILLER_0_85
*211 FILLER_0_97
*212 FILLER_10_111
*213 FILLER_10_119
*214 FILLER_10_15
*215 FILLER_10_3
*216 FILLER_10_39
*217 FILLER_10_45
*218 FILLER_10_49
*219 FILLER_10_53
*220 FILLER_10_74
*221 FILLER_10_82
*222 FILLER_10_85
*223 FILLER_11_102
*224 FILLER_11_110
*225 FILLER_11_113
*226 FILLER_11_119
*227 FILLER_11_23
*228 FILLER_11_33
*229 FILLER_11_55
*230 FILLER_11_57
*231 FILLER_11_70
*232 FILLER_11_82
*233 FILLER_11_86
*234 FILLER_11_90
*235 FILLER_12_10
*236 FILLER_12_106
*237 FILLER_12_118
*238 FILLER_12_26
*239 FILLER_12_50
*240 FILLER_12_6
*241 FILLER_12_77
*242 FILLER_12_83
*243 FILLER_13_108
*244 FILLER_13_113
*245 FILLER_13_119
*246 FILLER_13_3
*247 FILLER_13_42
*248 FILLER_14_112
*249 FILLER_14_14
*250 FILLER_14_18
*251 FILLER_14_26
*252 FILLER_14_49
*253 FILLER_14_58
*254 FILLER_14_6
*255 FILLER_14_64
*256 FILLER_14_76
*257 FILLER_15_113
*258 FILLER_15_119
*259 FILLER_15_3
*260 FILLER_15_44
*261 FILLER_15_52
*262 FILLER_16_109
*263 FILLER_16_117
*264 FILLER_16_23
*265 FILLER_16_27
*266 FILLER_16_44
*267 FILLER_16_63
*268 FILLER_16_83
*269 FILLER_16_85
*270 FILLER_16_97
*271 FILLER_17_105
*272 FILLER_17_111
*273 FILLER_17_113
*274 FILLER_17_119
*275 FILLER_17_25
*276 FILLER_17_3
*277 FILLER_17_35
*278 FILLER_17_69
*279 FILLER_17_93
*280 FILLER_18_109
*281 FILLER_18_115
*282 FILLER_18_18
*283 FILLER_18_27
*284 FILLER_18_52
*285 FILLER_18_6
*286 FILLER_18_76
*287 FILLER_18_85
*288 FILLER_18_97
*289 FILLER_19_109
*290 FILLER_19_113
*291 FILLER_19_119
*292 FILLER_19_17
*293 FILLER_19_21
*294 FILLER_19_27
*295 FILLER_19_29
*296 FILLER_19_37
*297 FILLER_19_47
*298 FILLER_19_55
*299 FILLER_19_57
*300 FILLER_19_69
*301 FILLER_19_81
*302 FILLER_19_85
*303 FILLER_19_9
*304 FILLER_19_97
*305 FILLER_1_104
*306 FILLER_1_113
*307 FILLER_1_119
*308 FILLER_1_16
*309 FILLER_1_20
*310 FILLER_1_53
*311 FILLER_1_67
*312 FILLER_1_92
*313 FILLER_2_105
*314 FILLER_2_117
*315 FILLER_2_3
*316 FILLER_2_45
*317 FILLER_2_77
*318 FILLER_3_73
*319 FILLER_4_10
*320 FILLER_4_111
*321 FILLER_4_119
*322 FILLER_4_17
*323 FILLER_4_38
*324 FILLER_4_6
*325 FILLER_4_65
*326 FILLER_4_79
*327 FILLER_4_89
*328 FILLER_4_99
*329 FILLER_5_105
*330 FILLER_5_111
*331 FILLER_5_113
*332 FILLER_5_119
*333 FILLER_5_15
*334 FILLER_5_23
*335 FILLER_5_3
*336 FILLER_5_55
*337 FILLER_5_57
*338 FILLER_5_69
*339 FILLER_6_119
*340 FILLER_6_23
*341 FILLER_6_27
*342 FILLER_6_52
*343 FILLER_6_60
*344 FILLER_6_65
*345 FILLER_6_77
*346 FILLER_6_85
*347 FILLER_7_116
*348 FILLER_7_18
*349 FILLER_7_52
*350 FILLER_7_82
*351 FILLER_8_117
*352 FILLER_8_3
*353 FILLER_8_37
*354 FILLER_9_106
*355 FILLER_9_113
*356 FILLER_9_119
*357 FILLER_9_18
*358 FILLER_9_34
*359 FILLER_9_46
*360 FILLER_9_54
*361 FILLER_9_57
*362 FILLER_9_6
*363 FILLER_9_69
*364 FILLER_9_75
*365 FILLER_9_79
*366 PHY_EDGE_ROW_0_Left_20
*367 PHY_EDGE_ROW_0_Right_0
*368 PHY_EDGE_ROW_10_Left_30
*369 PHY_EDGE_ROW_10_Right_10
*370 PHY_EDGE_ROW_11_Left_31
*371 PHY_EDGE_ROW_11_Right_11
*372 PHY_EDGE_ROW_12_Left_32
*373 PHY_EDGE_ROW_12_Right_12
*374 PHY_EDGE_ROW_13_Left_33
*375 PHY_EDGE_ROW_13_Right_13
*376 PHY_EDGE_ROW_14_Left_34
*377 PHY_EDGE_ROW_14_Right_14
*378 PHY_EDGE_ROW_15_Left_35
*379 PHY_EDGE_ROW_15_Right_15
*380 PHY_EDGE_ROW_16_Left_36
*381 PHY_EDGE_ROW_16_Right_16
*382 PHY_EDGE_ROW_17_Left_37
*383 PHY_EDGE_ROW_17_Right_17
*384 PHY_EDGE_ROW_18_Left_38
*385 PHY_EDGE_ROW_18_Right_18
*386 PHY_EDGE_ROW_19_Left_39
*387 PHY_EDGE_ROW_19_Right_19
*388 PHY_EDGE_ROW_1_Left_21
*389 PHY_EDGE_ROW_1_Right_1
*390 PHY_EDGE_ROW_2_Left_22
*391 PHY_EDGE_ROW_2_Right_2
*392 PHY_EDGE_ROW_3_Left_23
*393 PHY_EDGE_ROW_3_Right_3
*394 PHY_EDGE_ROW_4_Left_24
*395 PHY_EDGE_ROW_4_Right_4
*396 PHY_EDGE_ROW_5_Left_25
*397 PHY_EDGE_ROW_5_Right_5
*398 PHY_EDGE_ROW_6_Left_26
*399 PHY_EDGE_ROW_6_Right_6
*400 PHY_EDGE_ROW_7_Left_27
*401 PHY_EDGE_ROW_7_Right_7
*402 PHY_EDGE_ROW_8_Left_28
*403 PHY_EDGE_ROW_8_Right_8
*404 PHY_EDGE_ROW_9_Left_29
*405 PHY_EDGE_ROW_9_Right_9
*406 TAP_TAPCELL_ROW_0_40
*407 TAP_TAPCELL_ROW_0_41
*408 TAP_TAPCELL_ROW_0_42
*409 TAP_TAPCELL_ROW_0_43
*410 TAP_TAPCELL_ROW_10_62
*411 TAP_TAPCELL_ROW_10_63
*412 TAP_TAPCELL_ROW_11_64
*413 TAP_TAPCELL_ROW_11_65
*414 TAP_TAPCELL_ROW_12_66
*415 TAP_TAPCELL_ROW_12_67
*416 TAP_TAPCELL_ROW_13_68
*417 TAP_TAPCELL_ROW_13_69
*418 TAP_TAPCELL_ROW_14_70
*419 TAP_TAPCELL_ROW_14_71
*420 TAP_TAPCELL_ROW_15_72
*421 TAP_TAPCELL_ROW_15_73
*422 TAP_TAPCELL_ROW_16_74
*423 TAP_TAPCELL_ROW_16_75
*424 TAP_TAPCELL_ROW_17_76
*425 TAP_TAPCELL_ROW_17_77
*426 TAP_TAPCELL_ROW_18_78
*427 TAP_TAPCELL_ROW_18_79
*428 TAP_TAPCELL_ROW_19_80
*429 TAP_TAPCELL_ROW_19_81
*430 TAP_TAPCELL_ROW_19_82
*431 TAP_TAPCELL_ROW_19_83
*432 TAP_TAPCELL_ROW_1_44
*433 TAP_TAPCELL_ROW_1_45
*434 TAP_TAPCELL_ROW_2_46
*435 TAP_TAPCELL_ROW_2_47
*436 TAP_TAPCELL_ROW_3_48
*437 TAP_TAPCELL_ROW_3_49
*438 TAP_TAPCELL_ROW_4_50
*439 TAP_TAPCELL_ROW_4_51
*440 TAP_TAPCELL_ROW_5_52
*441 TAP_TAPCELL_ROW_5_53
*442 TAP_TAPCELL_ROW_6_54
*443 TAP_TAPCELL_ROW_6_55
*444 TAP_TAPCELL_ROW_7_56
*445 TAP_TAPCELL_ROW_7_57
*446 TAP_TAPCELL_ROW_8_58
*447 TAP_TAPCELL_ROW_8_59
*448 TAP_TAPCELL_ROW_9_60
*449 TAP_TAPCELL_ROW_9_61
*450 _110_
*451 _111_
*452 _112_
*453 _113_
*454 _114_
*455 _115_
*456 _116_
*457 _117_
*458 _118_
*459 _119_
*460 _120_
*461 _121_
*462 _122_
*463 _123_
*464 _124_
*465 _125_
*466 _126_
*467 _127_
*468 _128_
*469 _129_
*470 _130_
*471 _131_
*472 _132_
*473 _133_
*474 _134_
*475 _135_
*476 _136_
*477 _137_
*478 _138_
*479 _139_
*480 _140_
*481 _141_
*482 _142_
*483 _143_
*484 _144_
*485 _145_
*486 _146_
*487 _147_
*488 _148_
*489 _149_
*490 _150_
*491 _151_
*492 _152_
*493 _153_
*494 _154_
*495 _155_
*496 _156_
*497 _157_
*498 _158_
*499 _159_
*500 _160_
*501 _161_
*502 _162_
*503 _163_
*504 _164_
*505 _165_
*506 _166_
*507 _167_
*508 _168_
*509 _169_
*510 _170_
*511 _171_
*512 _172_
*513 _173_
*514 _174_
*515 _175_
*516 _176_
*517 _177_
*518 _178_
*519 _179_
*520 _180_
*521 _181_
*522 _182_
*523 _183_
*524 _184_
*525 _185_
*526 _186_
*527 _187_
*528 _188_
*529 _189_
*530 _190_
*531 _191_
*532 _192_
*533 _193_
*534 _194_
*535 _195_
*536 _196_
*537 _197_
*538 _198_
*539 _199_
*540 _200_
*541 _201_
*542 _202_
*543 _203_
*544 _204_
*545 _205_
*546 _206_
*547 _207_
*548 _208_
*549 _209_
*550 _210_
*551 _211_
*552 _212_
*553 _213_
*554 _214_
*555 _215_
*556 _216_
*557 _217_
*558 _218_
*559 _219_
*560 _220_
*561 _221_
*562 _222_
*563 _223_
*564 _224_
*565 _225_
*566 _226_
*567 _227_
*568 _228_
*569 _229_
*570 _230_
*571 _231_
*572 _232_
*573 _233_
*574 _234_
*575 _235_
*576 _236_
*577 _237_
*578 _238_
*579 _239_
*580 _240_
*581 _241_
*582 _242_
*583 _243_
*584 _244_
*585 _245_
*586 _246_
*587 _247_
*588 _248_
*589 _249_
*590 _250_
*591 clkbuf_0_clk
*592 clkbuf_2_0__f_clk
*593 clkbuf_2_1__f_clk
*594 clkbuf_2_2__f_clk
*595 clkbuf_2_3__f_clk
*596 clkload0
*597 clkload1
*598 clkload2
*599 fanout13
*600 fanout14
*601 fanout15
*602 fanout16
*603 fanout17
*604 fanout18
*605 hold1
*606 hold10
*607 hold11
*608 hold12
*609 hold13
*610 hold14
*611 hold15
*612 hold16
*613 hold17
*614 hold18
*615 hold19
*616 hold2
*617 hold20
*618 hold3
*619 hold4
*620 hold5
*621 hold6
*622 hold7
*623 hold8
*624 hold9
*625 input1
*626 input10
*627 input2
*628 input3
*629 input4
*630 input5
*631 input6
*632 input7
*633 input8
*634 input9
*635 output11
*636 output12

*PORTS
busy O
clk I
data_in[0] I
data_in[1] I
data_in[2] I
data_in[3] I
data_in[4] I
data_in[5] I
data_in[6] I
data_in[7] I
en I
rst I
tx O

*D_NET *3 0.000549937
*CONN
*P busy O
*I *635:X O *D sky130_fd_sc_hd__buf_2
*CAP
1 busy 0.000244624
2 *635:X 0.000244624
3 busy *635:A 6.06899e-05
*RES
1 *635:X busy 5.86677 
*END

*D_NET *4 0.00403687
*CONN
*P clk I
*I *591:A I *D sky130_fd_sc_hd__clkbuf_16
*CAP
1 clk 0.00158074
2 *591:A 0.00158074
3 *591:A *472:A 0
4 *591:A *492:S 0
5 *591:A *513:A 0
6 *591:A *520:A 0
7 *591:A *547:A 0
8 *591:A *560:RESET_B 3.89528e-05
9 *591:A *565:RESET_B 0.000136877
10 *591:A *573:RESET_B 0
11 *591:A *98:10 0
12 *591:A *99:27 0
13 *591:A *126:10 0.000132631
14 *591:A *134:22 0
15 *591:A *151:32 0
16 *591:A *151:40 0.000219756
17 *591:A *151:57 0.000347168
18 *591:A *151:63 0
*RES
1 clk *591:A 34.005 
*END

*D_NET *5 0.000534372
*CONN
*P data_in[0] I
*I *625:A I *D sky130_fd_sc_hd__clkbuf_1
*CAP
1 data_in[0] 0.000267186
2 *625:A 0.000267186
3 *625:A *627:A 0
4 *625:A *634:A 0
*RES
1 data_in[0] *625:A 6.8343 
*END

*D_NET *6 0.000683452
*CONN
*P data_in[1] I
*I *627:A I *D sky130_fd_sc_hd__clkbuf_1
*CAP
1 data_in[1] 0.000338811
2 *627:A 0.000338811
3 *627:A *580:CLK 5.83121e-06
4 *627:A *582:CLK 0
5 *627:A *628:A 0
6 *627:A *141:42 0
7 *625:A *627:A 0
*RES
1 data_in[1] *627:A 8.1093 
*END

*D_NET *7 0.0005615
*CONN
*P data_in[2] I
*I *628:A I *D sky130_fd_sc_hd__clkbuf_1
*CAP
1 data_in[2] 0.00028075
2 *628:A 0.00028075
3 *628:A *629:A 0
4 *627:A *628:A 0
*RES
1 data_in[2] *628:A 7.0893 
*END

*D_NET *8 0.000653585
*CONN
*P data_in[3] I
*I *629:A I *D sky130_fd_sc_hd__clkbuf_1
*CAP
1 data_in[3] 0.000326792
2 *629:A 0.000326792
3 *629:A *583:CLK 0
4 *629:A *630:A 0
5 *628:A *629:A 0
*RES
1 data_in[3] *629:A 7.8543 
*END

*D_NET *9 0.000531065
*CONN
*P data_in[4] I
*I *630:A I *D sky130_fd_sc_hd__clkbuf_1
*CAP
1 data_in[4] 0.000265532
2 *630:A 0.000265532
3 *630:A *631:A 0
4 *629:A *630:A 0
*RES
1 data_in[4] *630:A 6.8343 
*END

*D_NET *10 0.000863065
*CONN
*P data_in[5] I
*I *631:A I *D sky130_fd_sc_hd__clkbuf_1
*CAP
1 data_in[5] 0.000431532
2 *631:A 0.000431532
3 *631:A *487:A0 0
4 *631:A *585:CLK 0
5 *631:A *632:A 0
6 *630:A *631:A 0
*RES
1 data_in[5] *631:A 9.8943 
*END

*D_NET *11 0.0006684
*CONN
*P data_in[6] I
*I *632:A I *D sky130_fd_sc_hd__clkbuf_1
*CAP
1 data_in[6] 0.000232611
2 *632:A 0.000232611
3 *632:A *633:A 0.000203178
4 *631:A *632:A 0
*RES
1 data_in[6] *632:A 7.0893 
*END

*D_NET *12 0.00120534
*CONN
*P data_in[7] I
*I *633:A I *D sky130_fd_sc_hd__clkbuf_1
*CAP
1 data_in[7] 0.000490527
2 *633:A 0.000490527
3 *633:A *486:A0 2.11084e-05
4 *632:A *633:A 0.000203178
*RES
1 data_in[7] *633:A 11.6054 
*END

*D_NET *13 0.000613894
*CONN
*P en I
*I *634:A I *D sky130_fd_sc_hd__clkbuf_2
*CAP
1 en 0.000306947
2 *634:A 0.000306947
3 *634:A *626:A 0
4 *625:A *634:A 0
*RES
1 en *634:A 7.4343 
*END

*D_NET *14 0.000750699
*CONN
*P rst I
*I *626:A I *D sky130_fd_sc_hd__clkbuf_1
*CAP
1 rst 0.000375349
2 *626:A 0.000375349
3 *634:A *626:A 0
*RES
1 rst *626:A 8.8743 
*END

*D_NET *15 0.000433555
*CONN
*P tx O
*I *636:X O *D sky130_fd_sc_hd__buf_2
*CAP
1 tx 0.000216778
2 *636:X 0.000216778
*RES
1 *636:X tx 4.84677 
*END

*D_NET *16 0.00127593
*CONN
*I *574:D I *D sky130_fd_sc_hd__dfstp_1
*I *499:X O *D sky130_fd_sc_hd__a22o_1
*CAP
1 *574:D 0.000338059
2 *499:X 0.000338059
3 *574:D *559:A 0.000139238
4 *574:D *569:CLK 3.09164e-05
5 *574:D *194:16 0.000429658
*RES
1 *499:X *574:D 12.735 
*END

*D_NET *17 0.000434773
*CONN
*I *575:D I *D sky130_fd_sc_hd__dfrtp_1
*I *498:X O *D sky130_fd_sc_hd__a22o_1
*CAP
1 *575:D 0.000130301
2 *498:X 0.000130301
3 *575:D *576:RESET_B 0
4 *575:D *78:10 6.07575e-06
5 *575:D *84:10 4.82863e-05
6 *575:D *126:72 3.64998e-06
7 *575:D *144:53 0.000116158
*RES
1 *498:X *575:D 9.375 
*END

*D_NET *18 0.000536347
*CONN
*I *576:D I *D sky130_fd_sc_hd__dfrtp_1
*I *497:X O *D sky130_fd_sc_hd__a21bo_1
*CAP
1 *576:D 0.00013312
2 *497:X 0.00013312
3 *576:D *497:A1 1.19928e-05
4 *576:D *497:A2 5.83121e-06
5 *576:D *576:CLK 3.76531e-05
6 *576:D *576:RESET_B 0.000123225
7 *576:D *157:8 9.14049e-05
*RES
1 *497:X *576:D 9.915 
*END

*D_NET *19 0.000269686
*CONN
*I *577:D I *D sky130_fd_sc_hd__dfrtp_1
*I *496:X O *D sky130_fd_sc_hd__a22o_1
*CAP
1 *577:D 0.0001042
2 *496:X 0.0001042
3 *577:D *496:A1 6.12863e-05
4 *577:D *496:B1 0
*RES
1 *496:X *577:D 5.045 
*END

*D_NET *20 0.000425269
*CONN
*I *560:D I *D sky130_fd_sc_hd__dfrtp_2
*I *506:Y O *D sky130_fd_sc_hd__inv_2
*CAP
1 *560:D 0.000198877
2 *506:Y 0.000198877
3 *560:D *560:RESET_B 0
4 *560:D *580:RESET_B 2.75145e-05
*RES
1 *506:Y *560:D 9.915 
*END

*D_NET *21 0.000799254
*CONN
*I *561:D I *D sky130_fd_sc_hd__dfrtp_1
*I *468:Y O *D sky130_fd_sc_hd__inv_2
*CAP
1 *561:D 0.000170646
2 *468:Y 0.000170646
3 *561:D *561:RESET_B 0
4 *561:D *562:D 6.09807e-05
5 *561:D *604:A 0.000343914
6 *561:D *182:22 5.30673e-05
*RES
1 *468:Y *561:D 11.925 
*END

*D_NET *22 0.000259216
*CONN
*I *571:D I *D sky130_fd_sc_hd__dfrtp_1
*I *530:X O *D sky130_fd_sc_hd__o211a_1
*CAP
1 *571:D 0.000107765
2 *530:X 0.000107765
3 *571:D *571:CLK 2.75229e-05
4 *571:D *114:37 1.03323e-05
5 *571:D *143:64 5.83121e-06
*RES
1 *530:X *571:D 4.685 
*END

*D_NET *23 0.00119582
*CONN
*I *572:D I *D sky130_fd_sc_hd__dfrtp_1
*I *532:Y O *D sky130_fd_sc_hd__a22oi_1
*CAP
1 *572:D 0.000216187
2 *532:Y 0.000216187
3 *572:D *502:B 1.03323e-05
4 *572:D *529:C 8.40269e-05
5 *572:D *532:A2 0.000316806
6 *572:D *532:B1 0.000318473
7 *572:D *129:6 3.38041e-05
*RES
1 *532:Y *572:D 13.05 
*END

*D_NET *24 0.000395017
*CONN
*I *573:D I *D sky130_fd_sc_hd__dfrtp_1
*I *535:X O *D sky130_fd_sc_hd__and3_1
*CAP
1 *573:D 0.000127696
2 *535:X 0.000127696
3 *573:D *535:C 0.0001249
4 *573:D *99:65 1.47256e-05
*RES
1 *535:X *573:D 5.045 
*END

*D_NET *25 0.00105052
*CONN
*I *562:D I *D sky130_fd_sc_hd__dfrtp_1
*I *508:Y O *D sky130_fd_sc_hd__nor2_1
*CAP
1 *562:D 0.000316621
2 *508:Y 0.000316621
3 *562:D *468:A 0.000347023
4 *562:D *561:RESET_B 0
5 *562:D *182:22 9.27255e-06
6 *561:D *562:D 6.09807e-05
*RES
1 *508:Y *562:D 11.88 
*END

*D_NET *26 0.00053839
*CONN
*I *563:D I *D sky130_fd_sc_hd__dfrtp_1
*I *509:X O *D sky130_fd_sc_hd__xor2_1
*CAP
1 *563:D 0.000144725
2 *509:X 0.000144725
3 *563:D *509:A 0.000116158
4 *563:D *151:32 0.000124473
5 *563:D *182:22 8.30853e-06
*RES
1 *509:X *563:D 9.72 
*END

*D_NET *27 0.00088334
*CONN
*I *564:D I *D sky130_fd_sc_hd__dfrtp_1
*I *511:X O *D sky130_fd_sc_hd__a21bo_1
*CAP
1 *564:D 0.000316753
2 *511:X 0.000316753
3 *564:D *492:A1 0
4 *564:D *510:B 5.53249e-06
5 *564:D *580:D 0
6 *564:D *95:10 0.000105776
7 *564:D *132:27 6.14516e-05
8 *564:D *141:14 7.70743e-05
*RES
1 *511:X *564:D 13.365 
*END

*D_NET *28 0.000322842
*CONN
*I *565:D I *D sky130_fd_sc_hd__dfrtp_1
*I *515:X O *D sky130_fd_sc_hd__and3_1
*CAP
1 *565:D 0.000127997
2 *515:X 0.000127997
3 *565:D *492:S 3.45588e-05
4 *565:D *505:C 3.50152e-06
5 *565:D *510:C_N 2.87867e-05
6 *565:D *565:RESET_B 0
*RES
1 *515:X *565:D 9.225 
*END

*D_NET *29 0.00102902
*CONN
*I *566:D I *D sky130_fd_sc_hd__dfrtp_1
*I *517:Y O *D sky130_fd_sc_hd__a21oi_1
*CAP
1 *566:D 0.000298916
2 *517:Y 0.000298916
3 *566:D *513:A 9.54399e-05
4 *566:D *515:B 9.71067e-05
5 *566:D *517:A1 4.55674e-05
6 *566:D *517:A2 9.96882e-05
7 *566:D *563:RESET_B 8.57024e-05
8 *566:D *151:36 7.68414e-06
*RES
1 *517:Y *566:D 11.8538 
*END

*D_NET *30 0.000295883
*CONN
*I *567:D I *D sky130_fd_sc_hd__dfrtp_1
*I *520:X O *D sky130_fd_sc_hd__and3_1
*CAP
1 *567:D 0.000115346
2 *520:X 0.000115346
3 *567:D *520:A 2.11084e-05
4 *567:D *520:C 4.40812e-05
*RES
1 *520:X *567:D 9.03 
*END

*D_NET *31 0.00109389
*CONN
*I *568:D I *D sky130_fd_sc_hd__dfrtp_1
*I *523:Y O *D sky130_fd_sc_hd__a21oi_1
*CAP
1 *568:D 0.000242425
2 *523:Y 0.000242425
3 *568:D *504:A 0
4 *568:D *504:D_N 4.99619e-05
5 *568:D *523:A1 0
6 *568:D *532:B2 5.98073e-05
7 *568:D *567:CLK 4.18603e-06
8 *568:D *597:A 2.75145e-05
9 *568:D *109:16 1.16578e-05
10 *568:D *143:22 7.45794e-05
11 *568:D *153:21 0.00038133
*RES
1 *523:Y *568:D 13.47 
*END

*D_NET *32 0.00108842
*CONN
*I *569:D I *D sky130_fd_sc_hd__dfrtp_1
*I *526:Y O *D sky130_fd_sc_hd__nor2_1
*CAP
1 *569:D 0.000314526
2 *526:Y 0.000314526
3 *569:D *526:A 0.000387003
4 *569:D *579:D 0
5 *569:D *138:12 7.23602e-05
*RES
1 *526:Y *569:D 11.88 
*END

*D_NET *33 0.00131664
*CONN
*I *570:D I *D sky130_fd_sc_hd__dfrtp_1
*I *528:X O *D sky130_fd_sc_hd__o21ba_1
*CAP
1 *570:D 0.000514746
2 *528:X 0.000514746
3 *570:D *570:CLK 0.0002572
4 *570:D *139:8 3.82323e-06
5 *570:D *139:51 2.61299e-05
*RES
1 *528:X *570:D 9.56375 
*END

*D_NET *34 0.000154014
*CONN
*I *560:RESET_B I *D sky130_fd_sc_hd__dfrtp_2
*I *472:Y O *D sky130_fd_sc_hd__inv_2
*CAP
1 *560:RESET_B 5.75304e-05
2 *472:Y 5.75304e-05
3 *560:D *560:RESET_B 0
4 *591:A *560:RESET_B 3.89528e-05
*RES
1 *472:Y *560:RESET_B 6.725 
*END

*D_NET *35 0.00110238
*CONN
*I *561:RESET_B I *D sky130_fd_sc_hd__dfrtp_1
*I *545:Y O *D sky130_fd_sc_hd__inv_2
*CAP
1 *561:RESET_B 0.000290004
2 *545:Y 0.000290004
3 *561:RESET_B *545:A 4.9253e-06
4 *561:RESET_B *604:A 0
5 *561:RESET_B *151:10 0.000116165
6 *561:RESET_B *151:108 0.000401281
7 *561:D *561:RESET_B 0
8 *562:D *561:RESET_B 0
*RES
1 *545:Y *561:RESET_B 12.02 
*END

*D_NET *36 0.000954615
*CONN
*I *562:RESET_B I *D sky130_fd_sc_hd__dfrtp_1
*I *546:Y O *D sky130_fd_sc_hd__inv_2
*CAP
1 *562:RESET_B 0.000232981
2 *546:Y 0.000232981
3 *562:RESET_B *501:B 0.000136877
4 *562:RESET_B *508:B 5.4256e-05
5 *562:RESET_B *94:18 0.00013521
6 *562:RESET_B *151:32 0.000162311
*RES
1 *546:Y *562:RESET_B 10.25 
*END

*D_NET *37 0.00123374
*CONN
*I *563:RESET_B I *D sky130_fd_sc_hd__dfrtp_1
*I *547:Y O *D sky130_fd_sc_hd__inv_2
*CAP
1 *563:RESET_B 0.00039843
2 *547:Y 0.00039843
3 *563:RESET_B *500:A 4.8022e-05
4 *563:RESET_B *500:B 8.64421e-05
5 *563:RESET_B *513:A 4.82863e-05
6 *563:RESET_B *517:A2 4.35432e-05
7 *563:RESET_B *563:CLK 3.53856e-05
8 *563:RESET_B *182:22 8.95026e-05
9 *566:D *563:RESET_B 8.57024e-05
*RES
1 *547:Y *563:RESET_B 8.7925 
*END

*D_NET *38 0.000900963
*CONN
*I *564:RESET_B I *D sky130_fd_sc_hd__dfrtp_1
*I *548:Y O *D sky130_fd_sc_hd__inv_2
*CAP
1 *564:RESET_B 0.000266029
2 *548:Y 0.000266029
3 *564:RESET_B *560:CLK 4.70326e-05
4 *564:RESET_B *592:A 0.000233786
5 *564:RESET_B *99:27 1.1561e-05
6 *564:RESET_B *133:10 7.23602e-05
7 *564:RESET_B *141:82 4.1652e-06
*RES
1 *548:Y *564:RESET_B 9.6425 
*END

*D_NET *39 0.000498431
*CONN
*I *565:RESET_B I *D sky130_fd_sc_hd__dfrtp_1
*I *549:Y O *D sky130_fd_sc_hd__inv_2
*CAP
1 *565:RESET_B 0.000122209
2 *549:Y 0.000122209
3 *565:RESET_B *510:C_N 0
4 *565:RESET_B *516:B 3.31103e-05
5 *565:RESET_B *102:38 8.40269e-05
6 *565:D *565:RESET_B 0
7 *591:A *565:RESET_B 0.000136877
*RES
1 *549:Y *565:RESET_B 8.03 
*END

*D_NET *40 0.000484707
*CONN
*I *566:RESET_B I *D sky130_fd_sc_hd__dfrtp_1
*I *550:Y O *D sky130_fd_sc_hd__inv_2
*CAP
1 *566:RESET_B 0.000124696
2 *550:Y 0.000124696
3 *566:RESET_B *469:A 8.86226e-05
4 *566:RESET_B *517:B1 9.54399e-05
5 *566:RESET_B *520:A 8.08153e-06
6 *566:RESET_B *603:A 4.31698e-05
*RES
1 *550:Y *566:RESET_B 7.9175 
*END

*D_NET *41 0.00033744
*CONN
*I *567:RESET_B I *D sky130_fd_sc_hd__dfrtp_1
*I *551:Y O *D sky130_fd_sc_hd__inv_2
*CAP
1 *567:RESET_B 8.41783e-05
2 *551:Y 8.41783e-05
3 *567:RESET_B *551:A 4.82919e-05
4 *567:RESET_B *567:CLK 1.32907e-06
5 *567:RESET_B *136:10 0.000119462
*RES
1 *551:Y *567:RESET_B 3.3775 
*END

*D_NET *42 0.000696812
*CONN
*I *568:RESET_B I *D sky130_fd_sc_hd__dfrtp_1
*I *552:Y O *D sky130_fd_sc_hd__inv_2
*CAP
1 *568:RESET_B 0.000255134
2 *552:Y 0.000255134
3 *568:RESET_B *532:A1 4.66108e-05
4 *568:RESET_B *579:D 0.000139933
5 *568:RESET_B *137:12 0
6 *568:RESET_B *143:16 0
7 *568:RESET_B *153:21 0
*RES
1 *552:Y *568:RESET_B 9.98 
*END

*D_NET *43 0.00029845
*CONN
*I *569:RESET_B I *D sky130_fd_sc_hd__dfrtp_1
*I *553:Y O *D sky130_fd_sc_hd__inv_2
*CAP
1 *569:RESET_B 8.88546e-05
2 *553:Y 8.88546e-05
3 *569:RESET_B *138:6 0.000120741
*RES
1 *553:Y *569:RESET_B 3.3775 
*END

*D_NET *44 0.000454888
*CONN
*I *570:RESET_B I *D sky130_fd_sc_hd__dfrtp_1
*I *554:Y O *D sky130_fd_sc_hd__inv_2
*CAP
1 *570:RESET_B 0.00014237
2 *554:Y 0.00014237
3 *570:RESET_B *570:CLK 3.09164e-05
4 *570:RESET_B *109:67 0.000139231
*RES
1 *554:Y *570:RESET_B 8.03 
*END

*D_NET *45 0.000348151
*CONN
*I *571:RESET_B I *D sky130_fd_sc_hd__dfrtp_1
*I *555:Y O *D sky130_fd_sc_hd__inv_2
*CAP
1 *571:RESET_B 0.000113705
2 *555:Y 0.000113705
3 *571:RESET_B *128:12 0.000120741
*RES
1 *555:Y *571:RESET_B 3.7225 
*END

*D_NET *46 0.000298805
*CONN
*I *572:RESET_B I *D sky130_fd_sc_hd__dfrtp_1
*I *556:Y O *D sky130_fd_sc_hd__inv_2
*CAP
1 *572:RESET_B 0.000107076
2 *556:Y 0.000107076
3 *572:RESET_B *556:A 4.82919e-05
4 *572:RESET_B *129:6 3.63611e-05
*RES
1 *556:Y *572:RESET_B 3.3775 
*END

*D_NET *47 0.000445181
*CONN
*I *573:RESET_B I *D sky130_fd_sc_hd__dfrtp_1
*I *557:Y O *D sky130_fd_sc_hd__inv_2
*CAP
1 *573:RESET_B 0.000154149
2 *557:Y 0.000154149
3 *573:RESET_B *492:S 0.000136884
4 *591:A *573:RESET_B 0
*RES
1 *557:Y *573:RESET_B 8.03 
*END

*D_NET *48 0.00056184
*CONN
*I *574:SET_B I *D sky130_fd_sc_hd__dfstp_1
*I *558:Y O *D sky130_fd_sc_hd__inv_2
*CAP
1 *574:SET_B 0.000201681
2 *558:Y 0.000201681
3 *574:SET_B *553:A 7.35813e-05
4 *574:SET_B *559:A 3.68682e-05
5 *574:SET_B *154:84 4.80285e-05
*RES
1 *558:Y *574:SET_B 8.555 
*END

*D_NET *49 0.000294863
*CONN
*I *575:RESET_B I *D sky130_fd_sc_hd__dfrtp_1
*I *559:Y O *D sky130_fd_sc_hd__inv_2
*CAP
1 *575:RESET_B 0.000102277
2 *559:Y 0.000102277
3 *575:RESET_B *559:A 4.82919e-05
4 *575:RESET_B *195:6 4.20162e-05
*RES
1 *559:Y *575:RESET_B 3.3775 
*END

*D_NET *50 0.00127444
*CONN
*I *576:RESET_B I *D sky130_fd_sc_hd__dfrtp_1
*I *450:Y O *D sky130_fd_sc_hd__inv_2
*CAP
1 *576:RESET_B 0.000515881
2 *450:Y 0.000515881
3 *576:RESET_B *576:CLK 4.7101e-05
4 *576:RESET_B *144:53 0
5 *576:RESET_B *195:56 7.23533e-05
6 *575:D *576:RESET_B 0
7 *576:D *576:RESET_B 0.000123225
*RES
1 *450:Y *576:RESET_B 12.8225 
*END

*D_NET *51 0.000606696
*CONN
*I *577:RESET_B I *D sky130_fd_sc_hd__dfrtp_1
*I *451:Y O *D sky130_fd_sc_hd__inv_2
*CAP
1 *577:RESET_B 0.000233167
2 *451:Y 0.000233167
3 *577:RESET_B *559:A 0
4 *577:RESET_B *611:A 0.000140363
*RES
1 *451:Y *577:RESET_B 9.4475 
*END

*D_NET *52 0.000514814
*CONN
*I *578:RESET_B I *D sky130_fd_sc_hd__dfrtp_1
*I *452:Y O *D sky130_fd_sc_hd__inv_2
*CAP
1 *578:RESET_B 0.000115808
2 *452:Y 0.000115808
3 *578:RESET_B *493:A0 0.000141599
4 *578:RESET_B *153:81 0.000141599
*RES
1 *452:Y *578:RESET_B 8.3225 
*END

*D_NET *53 0.000439123
*CONN
*I *579:SET_B I *D sky130_fd_sc_hd__dfstp_1
*I *453:Y O *D sky130_fd_sc_hd__inv_2
*CAP
1 *579:SET_B 0.000175756
2 *453:Y 0.000175756
3 *579:SET_B *636:A 8.76111e-05
*RES
1 *453:Y *579:SET_B 4.4125 
*END

*D_NET *54 0.00123858
*CONN
*I *580:RESET_B I *D sky130_fd_sc_hd__dfrtp_1
*I *454:Y O *D sky130_fd_sc_hd__inv_2
*CAP
1 *580:RESET_B 0.000295559
2 *454:Y 0.000295559
3 *580:RESET_B *472:A 0.000139238
4 *580:RESET_B *492:A1 4.31857e-05
5 *580:RESET_B *608:A 0.000272389
6 *580:RESET_B *99:27 0.00016513
7 *560:D *580:RESET_B 2.75145e-05
*RES
1 *454:Y *580:RESET_B 12.1175 
*END

*D_NET *55 0.000427161
*CONN
*I *581:RESET_B I *D sky130_fd_sc_hd__dfrtp_1
*I *455:Y O *D sky130_fd_sc_hd__inv_2
*CAP
1 *581:RESET_B 0.000136273
2 *455:Y 0.000136273
3 *581:RESET_B *580:CLK 7.83029e-05
4 *581:RESET_B *151:108 0
5 *581:RESET_B *154:46 7.63125e-05
*RES
1 *455:Y *581:RESET_B 8.03 
*END

*D_NET *56 0.000371326
*CONN
*I *582:RESET_B I *D sky130_fd_sc_hd__dfrtp_1
*I *456:Y O *D sky130_fd_sc_hd__inv_2
*CAP
1 *582:RESET_B 2.76629e-05
2 *456:Y 2.76629e-05
3 *582:RESET_B *456:A 0.000118651
4 *582:RESET_B *491:A1 0.00019735
*RES
1 *456:Y *582:RESET_B 3.3775 
*END

*D_NET *57 0.00086021
*CONN
*I *583:RESET_B I *D sky130_fd_sc_hd__dfrtp_1
*I *457:Y O *D sky130_fd_sc_hd__inv_2
*CAP
1 *583:RESET_B 0.000187243
2 *457:Y 0.000187243
3 *583:RESET_B *542:A3 8.49205e-05
4 *583:RESET_B *543:B1 4.82863e-05
5 *583:RESET_B *602:A 0
6 *583:RESET_B *624:A 7.63204e-05
7 *583:RESET_B *152:68 0.000159964
8 *583:RESET_B *154:62 2.96426e-05
9 *583:RESET_B *189:8 8.65905e-05
*RES
1 *457:Y *583:RESET_B 9.9575 
*END

*D_NET *58 0.000703182
*CONN
*I *584:RESET_B I *D sky130_fd_sc_hd__dfrtp_1
*I *458:Y O *D sky130_fd_sc_hd__inv_2
*CAP
1 *584:RESET_B 0.000229471
2 *458:Y 0.000229471
3 *584:RESET_B *539:B1 2.97004e-06
4 *584:RESET_B *539:C1 2.24912e-05
5 *584:RESET_B *142:10 0
6 *584:RESET_B *142:16 0
7 *584:RESET_B *142:48 4.08133e-05
8 *584:RESET_B *150:41 8.5225e-05
9 *584:RESET_B *190:6 9.2741e-05
*RES
1 *458:Y *584:RESET_B 9.9575 
*END

*D_NET *59 0.000626121
*CONN
*I *585:RESET_B I *D sky130_fd_sc_hd__dfrtp_1
*I *459:Y O *D sky130_fd_sc_hd__inv_2
*CAP
1 *585:RESET_B 0.000218648
2 *459:Y 0.000218648
3 *585:RESET_B *459:A 2.11084e-05
4 *585:RESET_B *461:A 0.000102184
5 *585:RESET_B *91:24 0
6 *585:RESET_B *91:26 0
7 *585:RESET_B *152:21 6.55328e-05
*RES
1 *459:Y *585:RESET_B 9.815 
*END

*D_NET *60 0.0010286
*CONN
*I *586:RESET_B I *D sky130_fd_sc_hd__dfrtp_1
*I *460:Y O *D sky130_fd_sc_hd__inv_2
*CAP
1 *586:RESET_B 0.000303308
2 *460:Y 0.000303308
3 *586:RESET_B *486:A1 8.74345e-06
4 *586:RESET_B *537:B 0.00024756
5 *586:RESET_B *142:83 5.8218e-05
6 *586:RESET_B *149:100 7.23533e-05
7 *586:RESET_B *152:27 3.51072e-05
*RES
1 *460:Y *586:RESET_B 11.6 
*END

*D_NET *61 0.00054604
*CONN
*I *587:RESET_B I *D sky130_fd_sc_hd__dfrtp_1
*I *461:Y O *D sky130_fd_sc_hd__inv_2
*CAP
1 *587:RESET_B 0.000136867
2 *461:Y 0.000136867
3 *587:RESET_B *461:A 0.000272306
4 *587:RESET_B *485:S 0
*RES
1 *461:Y *587:RESET_B 8.765 
*END

*D_NET *62 0.000197434
*CONN
*I *588:RESET_B I *D sky130_fd_sc_hd__dfrtp_1
*I *462:Y O *D sky130_fd_sc_hd__inv_2
*CAP
1 *588:RESET_B 5.01635e-05
2 *462:Y 5.01635e-05
3 *588:RESET_B *462:A 9.71067e-05
*RES
1 *462:Y *588:RESET_B 6.725 
*END

*D_NET *63 0.00049193
*CONN
*I *589:RESET_B I *D sky130_fd_sc_hd__dfrtp_1
*I *463:Y O *D sky130_fd_sc_hd__inv_2
*CAP
1 *589:RESET_B 0.00019655
2 *463:Y 0.00019655
3 *589:RESET_B *149:22 2.24423e-05
4 *589:RESET_B *184:10 7.63883e-05
*RES
1 *463:Y *589:RESET_B 8.285 
*END

*D_NET *64 0.000319158
*CONN
*I *590:RESET_B I *D sky130_fd_sc_hd__dfrtp_1
*I *464:Y O *D sky130_fd_sc_hd__inv_2
*CAP
1 *590:RESET_B 0.000101775
2 *464:Y 0.000101775
3 *590:RESET_B *185:6 0.000115608
*RES
1 *464:Y *590:RESET_B 3.3775 
*END

*D_NET *65 0.00107582
*CONN
*I *578:D I *D sky130_fd_sc_hd__dfrtp_1
*I *494:X O *D sky130_fd_sc_hd__or3_1
*CAP
1 *578:D 0.000387744
2 *494:X 0.000387744
3 *578:D *494:C 3.83995e-05
4 *578:D *578:CLK 4.70343e-05
5 *578:D *144:38 0.000161829
6 *578:D *144:44 5.30673e-05
*RES
1 *494:X *578:D 12.825 
*END

*D_NET *66 0.00113228
*CONN
*I *580:D I *D sky130_fd_sc_hd__dfrtp_1
*I *492:X O *D sky130_fd_sc_hd__mux2_1
*CAP
1 *580:D 0.000464553
2 *492:X 0.000464553
3 *580:D *95:6 0.000203178
4 *580:D *141:14 0
5 *580:D *154:46 0
6 *580:D *187:10 0
7 *564:D *580:D 0
*RES
1 *492:X *580:D 14.49 
*END

*D_NET *67 0.000251231
*CONN
*I *581:D I *D sky130_fd_sc_hd__dfrtp_1
*I *491:X O *D sky130_fd_sc_hd__mux2_1
*CAP
1 *581:D 9.02691e-05
2 *491:X 9.02691e-05
3 *581:D *141:22 1.43521e-05
4 *581:D *141:42 5.63405e-05
5 *581:D *151:108 0
*RES
1 *491:X *581:D 9.09 
*END

*D_NET *68 0.000216854
*CONN
*I *582:D I *D sky130_fd_sc_hd__dfrtp_1
*I *490:X O *D sky130_fd_sc_hd__mux2_1
*CAP
1 *582:D 9.50758e-05
2 *490:X 9.50758e-05
3 *582:D *491:S 2.67022e-05
*RES
1 *490:X *582:D 8.56875 
*END

*D_NET *69 0.000232567
*CONN
*I *583:D I *D sky130_fd_sc_hd__dfrtp_1
*I *489:X O *D sky130_fd_sc_hd__mux2_1
*CAP
1 *583:D 5.61903e-05
2 *489:X 5.61903e-05