*SPEF "ieee 1481-1999"
*DESIGN "top"
*DATE "20:32:13 Thursday February 05, 2026"
*VENDOR "The OpenROAD Project"
*PROGRAM "OpenROAD"
*VERSION "edf00dff99f6c40d67a30c0e22a8191c5d2ed9d6"
*DESIGN_FLOW "NAME_SCOPE LOCAL" "PIN_CAP NONE"
*DIVIDER /
*DELIMITER :
*BUS_DELIMITER []
*T_UNIT 1 NS
*C_UNIT 1 PF
*R_UNIT 1 OHM
*L_UNIT 1 HENRY

*NAME_MAP
*3 busy
*4 clk
*5 data_in[0]
*6 data_in[1]
*7 data_in[2]
*8 data_in[3]
*9 data_in[4]
*10 data_in[5]
*11 data_in[6]
*12 data_in[7]
*13 en
*14 rst
*15 tx
*16 _000_
*17 _001_
*18 _002_
*19 _003_
*20 _004_
*21 _005_
*22 _006_
*23 _007_
*24 _008_
*25 _009_
*26 _010_
*27 _011_
*28 _012_
*29 _013_
*30 _014_
*31 _015_
*32 _016_
*33 _017_
*34 _018_
*35 _019_
*36 _020_
*37 _021_
*38 _022_
*39 _023_
*40 _024_
*41 _025_
*42 _026_
*43 _027_
*44 _028_
*45 _029_
*46 _030_
*47 _031_
*48 _032_
*49 _033_
*50 _034_
*51 _035_
*52 _036_
*53 _037_
*54 _038_
*55 _039_
*56 _040_
*57 _041_
*58 _042_
*59 _043_
*60 _044_
*61 _045_
*62 _046_
*63 _047_
*64 _048_
*65 _049_
*66 _050_
*67 _051_
*68 _052_
*69 _053_
*70 _054_
*71 _055_
*72 _056_
*73 _057_
*74 _058_
*75 _059_
*76 _060_
*77 _061_
*78 _062_
*79 _063_
*80 _064_
*81 _065_
*82 _066_
*83 _067_
*84 _068_
*85 _069_
*86 _070_
*87 _071_
*88 _072_
*89 _073_
*90 _074_
*91 _075_
*92 _076_
*93 _077_
*94 _078_
*95 _079_
*96 _080_
*97 _081_
*98 _082_
*99 _083_
*100 _084_
*101 _085_
*102 _086_
*103 _087_
*104 _088_
*105 _089_
*106 _090_
*107 _091_
*108 _092_
*109 _093_
*110 _094_
*111 _095_
*112 _096_
*113 _097_
*114 _098_
*115 _099_
*116 _100_
*117 _101_
*118 _102_
*119 _103_
*120 _104_
*121 _105_
*122 _106_
*123 _107_
*124 _108_
*125 _109_
*126 baud_inst\.baud_tick
*127 baud_inst\.cnt\[0\]
*128 baud_inst\.cnt\[10\]
*129 baud_inst\.cnt\[11\]
*130 baud_inst\.cnt\[12\]
*131 baud_inst\.cnt\[1\]
*132 baud_inst\.cnt\[2\]
*133 baud_inst\.cnt\[3\]
*134 baud_inst\.cnt\[4\]
*135 baud_inst\.cnt\[5\]
*136 baud_inst\.cnt\[6\]
*137 baud_inst\.cnt\[7\]
*138 baud_inst\.cnt\[8\]
*139 baud_inst\.cnt\[9\]
*140 clknet_0_clk
*141 clknet_2_0__leaf_clk
*142 clknet_2_1__leaf_clk
*143 clknet_2_2__leaf_clk
*144 clknet_2_3__leaf_clk
*145 net1
*146 net10
*147 net11
*148 net12
*149 net13
*150 net14
*151 net15
*152 net16
*153 net17
*154 net18
*155 net19
*156 net2
*157 net20
*158 net21
*159 net22
*160 net23
*161 net24
*162 net25
*163 net26
*164 net27
*165 net28
*166 net29
*167 net3
*168 net30
*169 net31
*170 net32
*171 net33
*172 net34
*173 net35
*174 net36
*175 net37
*176 net4
*177 net5
*178 net6
*179 net7
*180 net8
*181 net9
*182 uart_tx_inst\.cnt\[0\]
*183 uart_tx_inst\.cnt\[1\]
*184 uart_tx_inst\.cnt\[2\]
*185 uart_tx_inst\.data_reg\[0\]
*186 uart_tx_inst\.data_reg\[1\]
*187 uart_tx_inst\.data_reg\[2\]
*188 uart_tx_inst\.data_reg\[3\]
*189 uart_tx_inst\.data_reg\[4\]
*190 uart_tx_inst\.data_reg\[5\]
*191 uart_tx_inst\.data_reg\[6\]
*192 uart_tx_inst\.data_reg\[7\]
*193 uart_tx_inst\.state\[0\]
*194 uart_tx_inst\.state\[1\]
*195 uart_tx_inst\.state\[2\]
*196 uart_tx_inst\.state\[3\]
*197 FILLER_0_110
*198 FILLER_0_116
*199 FILLER_0_15
*200 FILLER_0_27
*201 FILLER_0_29
*202 FILLER_0_3
*203 FILLER_0_41
*204 FILLER_0_53
*205 FILLER_0_57
*206 FILLER_0_69
*207 FILLER_0_85
*208 FILLER_10_102
*209 FILLER_10_37
*210 FILLER_10_41
*211 FILLER_10_82
*212 FILLER_10_85
*213 FILLER_11_116
*214 FILLER_11_3
*215 FILLER_11_36
*216 FILLER_11_52
*217 FILLER_11_65
*218 FILLER_11_87
*219 FILLER_12_118
*220 FILLER_12_15
*221 FILLER_12_25
*222 FILLER_12_3
*223 FILLER_12_33
*224 FILLER_12_39
*225 FILLER_12_45
*226 FILLER_12_50
*227 FILLER_12_60
*228 FILLER_12_72
*229 FILLER_12_76
*230 FILLER_12_80
*231 FILLER_12_85
*232 FILLER_12_97
*233 FILLER_13_113
*234 FILLER_13_19
*235 FILLER_13_3
*236 FILLER_13_65
*237 FILLER_13_69
*238 FILLER_13_90
*239 FILLER_14_25
*240 FILLER_14_3
*241 FILLER_14_71
*242 FILLER_15_102
*243 FILLER_15_11
*244 FILLER_15_17
*245 FILLER_15_3
*246 FILLER_15_60
*247 FILLER_15_72
*248 FILLER_15_76
*249 FILLER_15_84
*250 FILLER_16_116
*251 FILLER_16_18
*252 FILLER_16_26
*253 FILLER_16_29
*254 FILLER_16_53
*255 FILLER_16_6
*256 FILLER_16_61
*257 FILLER_17_119
*258 FILLER_17_15
*259 FILLER_17_3
*260 FILLER_17_60
*261 FILLER_17_68
*262 FILLER_18_119
*263 FILLER_18_15
*264 FILLER_18_27
*265 FILLER_18_29
*266 FILLER_18_3
*267 FILLER_18_33
*268 FILLER_18_57
*269 FILLER_18_69
*270 FILLER_18_82
*271 FILLER_18_94
*272 FILLER_19_103
*273 FILLER_19_113
*274 FILLER_19_15
*275 FILLER_19_27
*276 FILLER_19_29
*277 FILLER_19_3
*278 FILLER_19_41
*279 FILLER_19_53
*280 FILLER_19_57
*281 FILLER_19_69
*282 FILLER_19_88
*283 FILLER_1_118
*284 FILLER_1_15
*285 FILLER_1_27
*286 FILLER_1_3
*287 FILLER_1_39
*288 FILLER_1_51
*289 FILLER_1_55
*290 FILLER_1_57
*291 FILLER_1_61
*292 FILLER_2_119
*293 FILLER_2_15
*294 FILLER_2_27
*295 FILLER_2_29
*296 FILLER_2_3
*297 FILLER_2_37
*298 FILLER_2_41
*299 FILLER_2_53
*300 FILLER_2_61
*301 FILLER_2_88
*302 FILLER_3_109
*303 FILLER_3_11
*304 FILLER_3_116
*305 FILLER_3_3
*306 FILLER_3_46
*307 FILLER_3_54
*308 FILLER_3_57
*309 FILLER_4_26
*310 FILLER_4_3
*311 FILLER_4_53
*312 FILLER_4_65
*313 FILLER_4_93
*314 FILLER_5_111
*315 FILLER_5_119
*316 FILLER_6_101
*317 FILLER_6_113
*318 FILLER_6_26
*319 FILLER_6_3
*320 FILLER_6_59
*321 FILLER_6_63
*322 FILLER_6_91
*323 FILLER_7_105
*324 FILLER_7_113
*325 FILLER_7_119
*326 FILLER_7_15
*327 FILLER_7_23
*328 FILLER_7_28
*329 FILLER_7_3
*330 FILLER_7_32
*331 FILLER_7_41
*332 FILLER_7_51
*333 FILLER_7_55
*334 FILLER_7_63
*335 FILLER_7_71
*336 FILLER_7_93
*337 FILLER_8_119
*338 FILLER_8_24
*339 FILLER_8_29
*340 FILLER_8_3
*341 FILLER_8_58
*342 FILLER_8_70
*343 FILLER_8_90
*344 FILLER_8_98
*345 FILLER_9_113
*346 FILLER_9_29
*347 FILLER_9_3
*348 FILLER_9_35
*349 FILLER_9_57
*350 FILLER_9_61
*351 FILLER_9_69
*352 FILLER_9_93
*353 PHY_EDGE_ROW_0_Left_20
*354 PHY_EDGE_ROW_0_Right_0
*355 PHY_EDGE_ROW_10_Left_30
*356 PHY_EDGE_ROW_10_Right_10
*357 PHY_EDGE_ROW_11_Left_31
*358 PHY_EDGE_ROW_11_Right_11
*359 PHY_EDGE_ROW_12_Left_32
*360 PHY_EDGE_ROW_12_Right_12
*361 PHY_EDGE_ROW_13_Left_33
*362 PHY_EDGE_ROW_13_Right_13
*363 PHY_EDGE_ROW_14_Left_34
*364 PHY_EDGE_ROW_14_Right_14
*365 PHY_EDGE_ROW_15_Left_35
*366 PHY_EDGE_ROW_15_Right_15
*367 PHY_EDGE_ROW_16_Left_36
*368 PHY_EDGE_ROW_16_Right_16
*369 PHY_EDGE_ROW_17_Left_37
*370 PHY_EDGE_ROW_17_Right_17
*371 PHY_EDGE_ROW_18_Left_38
*372 PHY_EDGE_ROW_18_Right_18
*373 PHY_EDGE_ROW_19_Left_39
*374 PHY_EDGE_ROW_19_Right_19
*375 PHY_EDGE_ROW_1_Left_21
*376 PHY_EDGE_ROW_1_Right_1
*377 PHY_EDGE_ROW_2_Left_22
*378 PHY_EDGE_ROW_2_Right_2
*379 PHY_EDGE_ROW_3_Left_23
*380 PHY_EDGE_ROW_3_Right_3
*381 PHY_EDGE_ROW_4_Left_24
*382 PHY_EDGE_ROW_4_Right_4
*383 PHY_EDGE_ROW_5_Left_25
*384 PHY_EDGE_ROW_5_Right_5
*385 PHY_EDGE_ROW_6_Left_26
*386 PHY_EDGE_ROW_6_Right_6
*387 PHY_EDGE_ROW_7_Left_27
*388 PHY_EDGE_ROW_7_Right_7
*389 PHY_EDGE_ROW_8_Left_28
*390 PHY_EDGE_ROW_8_Right_8
*391 PHY_EDGE_ROW_9_Left_29
*392 PHY_EDGE_ROW_9_Right_9
*393 TAP_TAPCELL_ROW_0_40
*394 TAP_TAPCELL_ROW_0_41
*395 TAP_TAPCELL_ROW_0_42
*396 TAP_TAPCELL_ROW_0_43
*397 TAP_TAPCELL_ROW_10_62
*398 TAP_TAPCELL_ROW_10_63
*399 TAP_TAPCELL_ROW_11_64
*400 TAP_TAPCELL_ROW_11_65
*401 TAP_TAPCELL_ROW_12_66
*402 TAP_TAPCELL_ROW_12_67
*403 TAP_TAPCELL_ROW_13_68
*404 TAP_TAPCELL_ROW_13_69
*405 TAP_TAPCELL_ROW_14_70
*406 TAP_TAPCELL_ROW_14_71
*407 TAP_TAPCELL_ROW_15_72
*408 TAP_TAPCELL_ROW_15_73
*409 TAP_TAPCELL_ROW_16_74
*410 TAP_TAPCELL_ROW_16_75
*411 TAP_TAPCELL_ROW_17_76
*412 TAP_TAPCELL_ROW_17_77
*413 TAP_TAPCELL_ROW_18_78
*414 TAP_TAPCELL_ROW_18_79
*415 TAP_TAPCELL_ROW_19_80
*416 TAP_TAPCELL_ROW_19_81
*417 TAP_TAPCELL_ROW_19_82
*418 TAP_TAPCELL_ROW_19_83
*419 TAP_TAPCELL_ROW_1_44
*420 TAP_TAPCELL_ROW_1_45
*421 TAP_TAPCELL_ROW_2_46
*422 TAP_TAPCELL_ROW_2_47
*423 TAP_TAPCELL_ROW_3_48
*424 TAP_TAPCELL_ROW_3_49
*425 TAP_TAPCELL_ROW_4_50
*426 TAP_TAPCELL_ROW_4_51
*427 TAP_TAPCELL_ROW_5_52
*428 TAP_TAPCELL_ROW_5_53
*429 TAP_TAPCELL_ROW_6_54
*430 TAP_TAPCELL_ROW_6_55
*431 TAP_TAPCELL_ROW_7_56
*432 TAP_TAPCELL_ROW_7_57
*433 TAP_TAPCELL_ROW_8_58
*434 TAP_TAPCELL_ROW_8_59
*435 TAP_TAPCELL_ROW_9_60
*436 TAP_TAPCELL_ROW_9_61
*437 _110_
*438 _111_
*439 _112_
*440 _113_
*441 _114_
*442 _115_
*443 _116_
*444 _117_
*445 _118_
*446 _119_
*447 _120_
*448 _121_
*449 _122_
*450 _123_
*451 _124_
*452 _125_
*453 _126_
*454 _127_
*455 _128_
*456 _129_
*457 _130_
*458 _131_
*459 _132_
*460 _133_
*461 _134_
*462 _135_
*463 _136_
*464 _137_
*465 _138_
*466 _139_
*467 _140_
*468 _141_
*469 _142_
*470 _143_
*471 _144_
*472 _145_
*473 _146_
*474 _147_
*475 _148_
*476 _149_
*477 _150_
*478 _151_
*479 _152_
*480 _153_
*481 _154_
*482 _155_
*483 _156_
*484 _157_
*485 _158_
*486 _159_
*487 _160_
*488 _161_
*489 _162_
*490 _163_
*491 _164_
*492 _165_
*493 _166_
*494 _167_
*495 _168_
*496 _169_
*497 _170_
*498 _171_
*499 _172_
*500 _173_
*501 _174_
*502 _175_
*503 _176_
*504 _177_
*505 _178_
*506 _179_
*507 _180_
*508 _181_
*509 _182_
*510 _183_
*511 _184_
*512 _185_
*513 _186_
*514 _187_
*515 _188_
*516 _189_
*517 _190_
*518 _191_
*519 _192_
*520 _193_
*521 _194_
*522 _195_
*523 _196_
*524 _197_
*525 _198_
*526 _199_
*527 _200_
*528 _201_
*529 _202_
*530 _203_
*531 _204_
*532 _205_
*533 _206_
*534 _207_
*535 _208_
*536 _209_
*537 _210_
*538 _211_
*539 _212_
*540 _213_
*541 _214_
*542 _215_
*543 _216_
*544 _217_
*545 _218_
*546 _219_
*547 _220_
*548 _221_
*549 _222_
*550 _223_
*551 _224_
*552 _225_
*553 _226_
*554 _227_
*555 _228_
*556 _229_
*557 _230_
*558 _231_
*559 _232_
*560 _233_
*561 _234_
*562 _235_
*563 _236_
*564 _237_
*565 _238_
*566 _239_
*567 _240_
*568 _241_
*569 _242_
*570 _243_
*571 _244_
*572 _245_
*573 _246_
*574 _247_
*575 _248_
*576 _249_
*577 _250_
*578 clkbuf_0_clk
*579 clkbuf_2_0__f_clk
*580 clkbuf_2_1__f_clk
*581 clkbuf_2_2__f_clk
*582 clkbuf_2_3__f_clk
*583 clkload0
*584 clkload1
*585 clkload2
*586 fanout13
*587 fanout14
*588 fanout15
*589 fanout16
*590 fanout17
*591 fanout18
*592 hold1
*593 hold10
*594 hold11
*595 hold12
*596 hold13
*597 hold14
*598 hold15
*599 hold16
*600 hold17
*601 hold18
*602 hold19
*603 hold2
*604 hold3
*605 hold4
*606 hold5
*607 hold6
*608 hold7
*609 hold8
*610 hold9
*611 input1
*612 input10
*613 input2
*614 input3
*615 input4
*616 input5
*617 input6
*618 input7
*619 input8
*620 input9
*621 output11
*622 output12

*PORTS
busy O
clk I
data_in[0] I
data_in[1] I
data_in[2] I
data_in[3] I
data_in[4] I
data_in[5] I
data_in[6] I
data_in[7] I
en I
rst I
tx O

*D_NET *3 0.00204568
*CONN
*P busy O
*I *621:X O *D sky130_fd_sc_hd__buf_2
*CAP
1 busy 0.000456182
2 *621:X 0.000500084
3 *3:8 0.000956266
4 busy *13:15 0
5 *3:8 *565:RESET_B 6.44467e-05
6 *3:8 *621:A 2.30292e-05
7 *3:8 *65:14 4.56685e-05
*RES
1 *621:X *3:8 45.2914 
2 *3:8 busy 9.75643 
*END

*D_NET *4 0.00570506
*CONN
*P clk I
*I *578:A I *D sky130_fd_sc_hd__clkbuf_16
*CAP
1 clk 0.00107565
2 *578:A 0.000864409
3 *4:11 0.00194006
4 *578:A *507:A 2.18506e-05
5 *578:A *507:B 5.91541e-05
6 *578:A *509:A 5.3304e-05
7 *578:A *553:CLK 0.000691065
8 *578:A *553:D 2.64616e-05
9 *578:A *30:14 5.50106e-05
10 *578:A *109:10 0.000317424
11 *578:A *135:10 0.000270914
12 *4:11 *612:A 0.000142205
13 *4:11 *40:10 0
14 *4:11 *146:8 0.000187561
15 *4:11 *151:10 0
*RES
1 clk *4:11 43.0088 
2 *4:11 *578:A 42.6993 
*END

*D_NET *5 0.00071632
*CONN
*P data_in[0] I
*I *611:A I *D sky130_fd_sc_hd__clkbuf_1
*CAP
1 data_in[0] 0.000302567
2 *611:A 0.000302567
3 *611:A *10:11 8.85446e-05
4 *611:A *91:48 0
5 *611:A *178:8 2.26406e-05
*RES
1 data_in[0] *611:A 47.955 
*END

*D_NET *6 0.000451297
*CONN
*P data_in[1] I
*I *613:A I *D sky130_fd_sc_hd__clkbuf_1
*CAP
1 data_in[1] 0.000155156
2 *613:A 0.000155156
3 *613:A *616:A 6.91091e-05
4 *613:A *12:11 6.91091e-05
5 *613:A *59:8 2.76611e-06
6 *613:A *190:27 0
*RES
1 data_in[1] *613:A 46.9931 
*END

*D_NET *7 0.00147071
*CONN
*P data_in[2] I
*I *614:A I *D sky130_fd_sc_hd__clkbuf_1
*CAP
1 data_in[2] 0.000635856
2 *614:A 0
3 *7:11 0.000635856
4 *7:11 *8:9 0
5 *7:11 *159:8 5.70419e-05
6 *7:11 *191:27 0.00014196
*RES
1 data_in[2] *7:11 29.6657 
2 *7:11 *614:A 23 
*END

*D_NET *8 0.00110381
*CONN
*P data_in[3] I
*I *615:A I *D sky130_fd_sc_hd__clkbuf_1
*CAP
1 data_in[3] 0.000551906
2 *615:A 0
3 *8:9 0.000551906
4 *7:11 *8:9 0
*RES
1 data_in[3] *8:9 27.1386 
2 *8:9 *615:A 23 
*END

*D_NET *9 0.000693779
*CONN
*P data_in[4] I
*I *616:A I *D sky130_fd_sc_hd__clkbuf_1
*CAP
1 data_in[4] 0.000238522
2 *616:A 0.000238522
3 *616:A *10:11 6.2493e-05
4 *616:A *178:8 8.51329e-05
5 *613:A *616:A 6.91091e-05
*RES
1 data_in[4] *616:A 49.1059 
*END

*D_NET *10 0.000956267
*CONN
*P data_in[5] I
*I *617:A I *D sky130_fd_sc_hd__clkbuf_1
*CAP
1 data_in[5] 0.000333457
2 *617:A 0
3 *10:11 0.000333457
4 *10:11 *178:8 0.000138315
5 *611:A *10:11 8.85446e-05
6 *616:A *10:11 6.2493e-05
*RES
1 data_in[5] *10:11 28.2188 
2 *10:11 *617:A 23 
*END

*D_NET *11 0.00105888
*CONN
*P data_in[6] I
*I *618:A I *D sky130_fd_sc_hd__clkbuf_1
*CAP
1 data_in[6] 0.00049677
2 *618:A 0
3 *11:11 0.00049677
4 *11:11 *609:A 0
5 *11:11 *12:11 0
6 *11:11 *153:81 6.53445e-05
7 *11:11 *191:27 0
*RES
1 data_in[6] *11:11 29.9795 
2 *11:11 *618:A 23 
*END

*D_NET *12 0.00110838
*CONN
*P data_in[7] I
*I *619:A I *D sky130_fd_sc_hd__clkbuf_1
*CAP
1 data_in[7] 0.000422186
2 *619:A 0
3 *12:11 0.000422186
4 *12:11 *524:B 0
5 *12:11 *61:10 1.19796e-05
6 *12:11 *149:112 0.000182921
7 *613:A *12:11 6.91091e-05
8 *11:11 *12:11 0
*RES
1 data_in[7] *12:11 28.2188 
2 *12:11 *619:A 23 
*END

*D_NET *13 0.00167153
*CONN
*P en I
*I *620:A I *D sky130_fd_sc_hd__dlymetal6s2s_1
*CAP
1 en 0.00060297
2 *620:A 0
3 *13:15 0.00060297
4 *13:15 *546:A 7.76364e-06
5 *13:15 *142:101 0.000272391
6 *13:15 *194:12 0.000185434
7 busy *13:15 0
*RES
1 en *13:15 29.4793 
2 *13:15 *620:A 23 
*END

*D_NET *14 0.000607709
*CONN
*P rst I
*I *612:A I *D sky130_fd_sc_hd__clkbuf_1
*CAP
1 rst 0.000227819
2 *612:A 0.000227819
3 *612:A *146:8 9.86551e-06
4 *4:11 *612:A 0.000142205
*RES
1 rst *612:A 47.7832 
*END

*D_NET *15 0.000553794
*CONN
*P tx O
*I *622:X O *D sky130_fd_sc_hd__buf_2
*CAP
1 tx 0.000271964
2 *622:X 0.000271964
3 tx *441:A 0
4 tx *148:10 9.86551e-06
*RES
1 *622:X tx 47.1648 
*END

*D_NET *16 0.00165402
*CONN
*I *561:D I *D sky130_fd_sc_hd__dfstp_2
*I *486:X O *D sky130_fd_sc_hd__a22o_1
*CAP
1 *561:D 4.22413e-05
2 *486:X 0.000421567
3 *16:10 0.000463808
4 *561:D *193:6 5.41385e-05
5 *16:10 *567:CLK 0.000135547
6 *16:10 *91:35 0
7 *16:10 *125:10 4.2361e-05
8 *16:10 *142:83 0.000243578
9 *16:10 *142:122 0.000197479
10 *16:10 *147:21 0
11 *16:10 *170:8 5.3304e-05
*RES
1 *486:X *16:10 46.1614 
2 *16:10 *561:D 39.0979 
*END

*D_NET *17 0.0015691
*CONN
*I *562:D I *D sky130_fd_sc_hd__dfrtp_1
*I *485:X O *D sky130_fd_sc_hd__a22o_1
*CAP
1 *562:D 0
2 *485:X 0.000573492
3 *17:10 0.000573492
4 *17:10 *482:A 7.27182e-05
5 *17:10 *584:A 5.50049e-05
6 *17:10 *18:10 9.63815e-05
7 *17:10 *87:16 1.32939e-05
8 *17:10 *93:8 7.06229e-05
9 *17:10 *140:27 0.000114092
10 *17:10 *142:16 0
11 *17:10 *142:40 0
*RES
1 *485:X *17:10 48.3364 
2 *17:10 *562:D 38 
*END

*D_NET *18 0.000910772
*CONN
*I *563:D I *D sky130_fd_sc_hd__dfrtp_1
*I *484:X O *D sky130_fd_sc_hd__a21bo_1
*CAP
1 *563:D 0
2 *484:X 0.000337894
3 *18:10 0.000337894
4 *18:10 *140:27 3.87132e-05
5 *18:10 *142:28 9.98891e-05
6 *17:10 *18:10 9.63815e-05
*RES
1 *484:X *18:10 44.4214 
2 *18:10 *563:D 38 
*END

*D_NET *19 0.00199118
*CONN
*I *564:D I *D sky130_fd_sc_hd__dfrtp_1
*I *483:X O *D sky130_fd_sc_hd__a22o_1
*CAP
1 *564:D 0.000550404
2 *483:X 0.000107693
3 *19:8 0.000658097
4 *564:D *567:CLK 0
5 *564:D *604:A 0
6 *564:D *91:8 8.62783e-05
7 *564:D *91:20 2.35393e-05
8 *564:D *126:53 3.83778e-05
9 *564:D *142:83 0
10 *564:D *142:93 0
11 *564:D *142:122 0
12 *564:D *147:21 0
13 *564:D *181:8 0
14 *564:D *193:23 1.34354e-05
15 *564:D *193:29 0.000374011
16 *19:8 *483:A1 5.67058e-05
17 *19:8 *170:10 8.264e-05
*RES
1 *483:X *19:8 39.5743 
2 *19:8 *564:D 48.7093 
*END

*D_NET *20 0.000626585
*CONN
*I *547:D I *D sky130_fd_sc_hd__dfrtp_2
*I *493:Y O *D sky130_fd_sc_hd__inv_2
*CAP
1 *547:D 0
2 *493:Y 0.000227497
3 *20:10 0.000227497
4 *20:10 *579:A 5.67058e-05
5 *20:10 *95:10 0
6 *20:10 *140:27 8.52481e-05
7 *20:10 *142:67 2.96369e-05
8 *20:10 *151:72 0
*RES
1 *493:Y *20:10 41.8321 
2 *20:10 *547:D 38 
*END

*D_NET *21 0.000511049
*CONN
*I *548:D I *D sky130_fd_sc_hd__dfrtp_1
*I *455:Y O *D sky130_fd_sc_hd__inv_2
*CAP
1 *548:D 0
2 *455:Y 0.000236455
3 *21:10 0.000236455
4 *21:10 *141:33 3.81391e-05
5 *21:10 *151:32 0
*RES
1 *455:Y *21:10 41.6043 
2 *21:10 *548:D 38 
*END

*D_NET *22 0.000389333
*CONN
*I *558:D I *D sky130_fd_sc_hd__dfrtp_1
*I *517:X O *D sky130_fd_sc_hd__o211a_1
*CAP
1 *558:D 8.55774e-05
2 *517:X 8.55774e-05
3 *558:D *517:A1 1.14762e-05
4 *558:D *558:CLK 6.99589e-05
5 *558:D *140:44 0.000136743
*RES
1 *517:X *558:D 48.0507 
*END

*D_NET *23 0.00185245
*CONN
*I *559:D I *D sky130_fd_sc_hd__dfrtp_1
*I *519:Y O *D sky130_fd_sc_hd__a22oi_1
*CAP
1 *559:D 0
2 *519:Y 0.000285435
3 *23:10 0.000285435
4 *23:10 *515:A1 5.56279e-05
5 *23:10 *515:A2 9.77405e-05
6 *23:10 *519:A2 0
7 *23:10 *519:B1 0.00052629
8 *23:10 *109:65 2.18286e-05
9 *23:10 *109:73 3.0647e-05
10 *23:10 *139:12 0.000218962
11 *23:10 *139:14 0.000201875
12 *23:10 *139:37 0.000103346
13 *23:10 *143:30 2.52578e-05
*RES
1 *519:Y *23:10 47.3421 
2 *23:10 *559:D 38 
*END

*D_NET *24 0.0005349
*CONN
*I *560:D I *D sky130_fd_sc_hd__dfrtp_1
*I *522:X O *D sky130_fd_sc_hd__and3_1
*CAP
1 *560:D 3.81229e-05
2 *522:X 0.000121035
3 *24:10 0.000159158
4 *560:D *517:C1 6.17437e-06
5 *560:D *130:10 1.57571e-05
6 *24:10 *522:A 0.000139647
7 *24:10 *47:8 0
8 *24:10 *154:37 5.50049e-05
*RES
1 *522:X *24:10 40.5271 
2 *24:10 *560:D 38.6214 
*END

*D_NET *25 0.00083837
*CONN
*I *549:D I *D sky130_fd_sc_hd__dfrtp_1
*I *495:Y O *D sky130_fd_sc_hd__nor2_1
*CAP
1 *549:D 0
2 *495:Y 0.000390015
3 *25:10 0.000390015
4 *25:10 *36:10 5.83407e-05
5 *25:10 *151:32 0
*RES
1 *495:Y *25:10 43.51 
2 *25:10 *549:D 38 
*END

*D_NET *26 0.000270946
*CONN
*I *550:D I *D sky130_fd_sc_hd__dfrtp_1
*I *496:X O *D sky130_fd_sc_hd__xor2_1
*CAP
1 *550:D 4.12997e-05
2 *496:X 4.12997e-05
3 *550:D *496:A 0.00010655
4 *550:D *550:CLK 8.1796e-05
*RES
1 *496:X *550:D 48.0507 
*END

*D_NET *27 0.00146077
*CONN
*I *551:D I *D sky130_fd_sc_hd__dfrtp_1
*I *498:X O *D sky130_fd_sc_hd__a21bo_1
*CAP
1 *551:D 6.29385e-05
2 *498:X 0.000467371
3 *27:10 0.00053031
4 *551:D *499:C 0.000126792
5 *551:D *132:25 8.19612e-05
6 *27:10 *498:A2 0.000143373
7 *27:10 *550:CLK 0
8 *27:10 *99:14 7.1674e-06
9 *27:10 *101:10 4.08537e-05
10 *27:10 *132:25 0
11 *27:10 *141:77 0
*RES
1 *498:X *27:10 45.6021 
2 *27:10 *551:D 40.5271 
*END

*D_NET *28 0.000717418
*CONN
*I *552:D I *D sky130_fd_sc_hd__dfrtp_1
*I *502:X O *D sky130_fd_sc_hd__and3_1
*CAP
1 *552:D 0.0002101
2 *502:X 0.000122305
3 *28:8 0.000332404
4 *28:8 *39:10 0
5 *28:8 *151:10 5.26101e-05
*RES
1 *502:X *28:8 40.2579 
2 *28:8 *552:D 41.48 
*END

*D_NET *29 0.00149071
*CONN
*I *553:D I *D sky130_fd_sc_hd__dfrtp_1
*I *504:Y O *D sky130_fd_sc_hd__a21oi_1
*CAP
1 *553:D 4.1307e-05
2 *504:Y 0.000212256
3 *29:10 0.000253563
4 *29:10 *588:A 0
5 *29:10 *80:10 8.62876e-05
6 *29:10 *99:50 0.000509855
7 *29:10 *103:8 5.3304e-05
8 *29:10 *103:20 0.000307678
9 *578:A *553:D 2.64616e-05
*RES
1 *504:Y *29:10 45.4571 
2 *29:10 *553:D 38.6214 
*END

*D_NET *30 0.00223553
*CONN
*I *554:D I *D sky130_fd_sc_hd__dfrtp_1
*I *507:X O *D sky130_fd_sc_hd__and3_1
*CAP
1 *554:D 0.000343143
2 *507:X 0.000294138
3 *30:14 0.000637281
4 *554:D *554:CLK 0.00029885
5 *554:D *136:8 1.14927e-05
6 *30:14 *503:A 0.000179147
7 *30:14 *505:B 0.000210447
8 *30:14 *507:B 5.50106e-05
9 *30:14 *102:42 4.88449e-05
10 *30:14 *106:8 1.52362e-05
11 *30:14 *134:27 8.26672e-05
12 *30:14 *135:34 4.25892e-06
13 *578:A *30:14 5.50106e-05
*RES
1 *507:X *30:14 45.1671 
2 *30:14 *554:D 43.9295 
*END

*D_NET *31 0.00173298
*CONN
*I *555:D I *D sky130_fd_sc_hd__dfrtp_1
*I *510:Y O *D sky130_fd_sc_hd__a21oi_1
*CAP
1 *555:D 0
2 *510:Y 0.000348323
3 *31:10 0.000348323
4 *31:10 *491:C 0.000313236
5 *31:10 *510:A2 4.65192e-05
6 *31:10 *555:CLK 0.000164282
7 *31:10 *109:10 0
8 *31:10 *137:25 0.000277799
9 *31:10 *139:47 4.334e-05
10 *31:10 *143:43 0.000191157
*RES
1 *510:Y *31:10 47.1557 
2 *31:10 *555:D 38 
*END

*D_NET *32 0.000716204
*CONN
*I *556:D I *D sky130_fd_sc_hd__dfrtp_1
*I *513:Y O *D sky130_fd_sc_hd__nor2_1
*CAP
1 *556:D 0
2 *513:Y 0.000170351
3 *32:8 0.000170351
4 *32:8 *556:CLK 0.000322892
5 *32:8 *109:87 5.26101e-05
*RES
1 *513:Y *32:8 42.3707 
2 *32:8 *556:D 38 
*END

*D_NET *33 0.000791404
*CONN
*I *557:D I *D sky130_fd_sc_hd__dfrtp_1
*I *515:X O *D sky130_fd_sc_hd__o21ba_1
*CAP
1 *557:D 0
2 *515:X 0.000371528
3 *33:10 0.000371528
4 *33:10 *557:CLK 4.58924e-05
5 *33:10 *109:65 2.45549e-06
*RES
1 *515:X *33:10 43.3857 
2 *33:10 *557:D 38 
*END

*D_NET *34 0.00103027
*CONN
*I *547:RESET_B I *D sky130_fd_sc_hd__dfrtp_2
*I *459:Y O *D sky130_fd_sc_hd__inv_2
*CAP
1 *547:RESET_B 0.000380245
2 *459:Y 0.000380245
3 *547:RESET_B *142:67 0.000269775
*RES
1 *459:Y *547:RESET_B 28.9554 
*END

*D_NET *35 0.000752191
*CONN
*I *548:RESET_B I *D sky130_fd_sc_hd__dfrtp_1
*I *532:Y O *D sky130_fd_sc_hd__inv_2
*CAP
1 *548:RESET_B 0
2 *532:Y 0.000260343
3 *35:10 0.000260343
4 *35:10 *455:A 5.41385e-05
5 *35:10 *494:A 5.50049e-05
6 *35:10 *100:8 7.28526e-05
7 *35:10 *151:21 0
8 *35:10 *151:32 0
9 *35:10 *155:6 4.95081e-05
10 *35:10 *169:10 0
*RES
1 *532:Y *35:10 43.4893 
2 *35:10 *548:RESET_B 15 
*END

*D_NET *36 0.000800587
*CONN
*I *549:RESET_B I *D sky130_fd_sc_hd__dfrtp_1
*I *533:Y O *D sky130_fd_sc_hd__inv_2
*CAP
1 *549:RESET_B 0
2 *533:Y 0.000319568
3 *36:10 0.000319568
4 *36:10 *495:A 9.84794e-05
5 *36:10 *550:CLK 0
6 *36:10 *94:18 4.6318e-06
7 *36:10 *100:8 0
8 *36:10 *151:38 0
9 *25:10 *36:10 5.83407e-05
*RES
1 *533:Y *36:10 43.6136 
2 *36:10 *549:RESET_B 15 
*END

*D_NET *37 0.000437337
*CONN
*I *550:RESET_B I *D sky130_fd_sc_hd__dfrtp_1
*I *534:Y O *D sky130_fd_sc_hd__inv_2
*CAP
1 *550:RESET_B 0
2 *534:Y 0.000173361
3 *37:10 0.000173361
4 *37:10 *94:12 5.73309e-05
5 *37:10 *162:8 3.32835e-05
*RES
1 *534:Y *37:10 41.2314 
2 *37:10 *550:RESET_B 15 
*END

*D_NET *38 0.000398761
*CONN
*I *551:RESET_B I *D sky130_fd_sc_hd__dfrtp_1
*I *535:Y O *D sky130_fd_sc_hd__inv_2
*CAP
1 *551:RESET_B 0.000117878
2 *535:Y 0.000117878
3 *551:RESET_B *499:C 2.27472e-05
4 *551:RESET_B *151:57 0.000140259
*RES
1 *535:Y *551:RESET_B 25.4546 
*END

*D_NET *39 0.000957659
*CONN
*I *552:RESET_B I *D sky130_fd_sc_hd__dfrtp_1
*I *536:Y O *D sky130_fd_sc_hd__inv_2
*CAP
1 *552:RESET_B 0
2 *536:Y 0.000221526
3 *39:10 0.000221526
4 *39:10 *502:A 7.53384e-06
5 *39:10 *502:C 3.8382e-05
6 *39:10 *103:20 0.00019747
7 *39:10 *141:31 0.000216216
8 *39:10 *151:10 0
9 *39:10 *151:21 5.50049e-05
10 *28:8 *39:10 0
*RES
1 *536:Y *39:10 44.3179 
2 *39:10 *552:RESET_B 15 
*END

*D_NET *40 0.000398674
*CONN
*I *553:RESET_B I *D sky130_fd_sc_hd__dfrtp_1
*I *537:Y O *D sky130_fd_sc_hd__inv_2
*CAP
1 *553:RESET_B 0
2 *537:Y 0.00019625
3 *40:10 0.00019625
4 *40:10 *537:A 6.17437e-06
5 *40:10 *151:10 0
6 *4:11 *40:10 0
*RES
1 *537:Y *40:10 41.2314 
2 *40:10 *553:RESET_B 15 
*END

*D_NET *41 0.00044306
*CONN
*I *554:RESET_B I *D sky130_fd_sc_hd__dfrtp_1
*I *538:Y O *D sky130_fd_sc_hd__inv_2
*CAP
1 *554:RESET_B 8.33321e-05
2 *538:Y 8.33321e-05
3 *554:RESET_B *136:8 0.000134437
4 *554:RESET_B *151:72 0.00014196
*RES
1 *538:Y *554:RESET_B 25.4546 
*END

*D_NET *42 0.000614168
*CONN
*I *555:RESET_B I *D sky130_fd_sc_hd__dfrtp_1
*I *539:Y O *D sky130_fd_sc_hd__inv_2
*CAP
1 *555:RESET_B 0.000163974
2 *539:Y 0.000163974
3 *555:RESET_B *508:A 0.000137039
4 *555:RESET_B *151:87 5.50106e-05
5 *555:RESET_B *151:93 9.41704e-05
*RES
1 *539:Y *555:RESET_B 26.4075 
*END

*D_NET *43 0.00092482
*CONN
*I *556:RESET_B I *D sky130_fd_sc_hd__dfrtp_1
*I *540:Y O *D sky130_fd_sc_hd__inv_2
*CAP
1 *556:RESET_B 0.000354101
2 *540:Y 0.000354101
3 *556:RESET_B *556:CLK 9.84851e-05
4 *556:RESET_B *138:8 0.000118133
*RES
1 *540:Y *556:RESET_B 28.4789 
*END

*D_NET *44 0.00153852
*CONN
*I *557:RESET_B I *D sky130_fd_sc_hd__dfrtp_1
*I *541:Y O *D sky130_fd_sc_hd__inv_2
*CAP
1 *557:RESET_B 0.000483924
2 *541:Y 0.000483924
3 *557:RESET_B *511:B 0.000267173
4 *557:RESET_B *109:73 0.000274514
5 *557:RESET_B *139:12 2.89813e-05
*RES
1 *541:Y *557:RESET_B 32.1246 
*END

*D_NET *45 0.000593435
*CONN
*I *558:RESET_B I *D sky130_fd_sc_hd__dfrtp_1
*I *542:Y O *D sky130_fd_sc_hd__inv_2
*CAP
1 *558:RESET_B 6.14449e-05
2 *542:Y 6.14449e-05
3 *558:RESET_B *582:A 0.000208293
4 *558:RESET_B *154:45 0.000262252
*RES
1 *542:Y *558:RESET_B 25.9311 
*END

*D_NET *46 0.00133833
*CONN
*I *559:RESET_B I *D sky130_fd_sc_hd__dfrtp_1
*I *543:Y O *D sky130_fd_sc_hd__inv_2
*CAP
1 *559:RESET_B 0.00010139
2 *543:Y 0.00017372
3 *46:10 0.00027511
4 *559:RESET_B *518:C 4.70852e-05
5 *559:RESET_B *129:6 8.60475e-05
6 *559:RESET_B *173:10 0.00011639
7 *46:10 *489:C_N 2.93845e-05
8 *46:10 *140:36 0.000111852
9 *46:10 *144:66 0
10 *46:10 *151:93 0.000326983
11 *46:10 *154:45 7.03663e-05
*RES
1 *543:Y *46:10 42.9921 
2 *46:10 *559:RESET_B 17.4546 
*END

*D_NET *47 0.000300995
*CONN
*I *560:RESET_B I *D sky130_fd_sc_hd__dfrtp_1
*I *544:Y O *D sky130_fd_sc_hd__inv_2
*CAP
1 *560:RESET_B 0
2 *544:Y 9.93149e-05
3 *47:8 9.93149e-05
4 *47:8 *522:A 0
5 *47:8 *99:50 0
6 *47:8 *154:23 0.000102365
7 *24:10 *47:8 0
*RES
1 *544:Y *47:8 40.61 
2 *47:8 *560:RESET_B 15 
*END

*D_NET *48 0.000599619
*CONN
*I *561:SET_B I *D sky130_fd_sc_hd__dfstp_2
*I *545:Y O *D sky130_fd_sc_hd__inv_2
*CAP
1 *561:SET_B 3.92997e-05
2 *545:Y 6.0433e-05
3 *48:8 9.97327e-05
4 *561:SET_B *193:6 9.29579e-06
5 *48:8 *92:10 0.00019654
6 *48:8 *152:85 0.000194318
*RES
1 *545:Y *48:8 40.61 
2 *48:8 *561:SET_B 15.5489 
*END

*D_NET *49 0.000801561
*CONN
*I *562:RESET_B I *D sky130_fd_sc_hd__dfrtp_1
*I *546:Y O *D sky130_fd_sc_hd__inv_2
*CAP
1 *562:RESET_B 6.84887e-05
2 *546:Y 0.00019029
3 *49:8 0.000258779
4 *49:8 *546:A 3.72639e-05
5 *49:8 *194:12 0.000221174
6 *49:8 *194:19 2.55642e-05
*RES
1 *546:Y *49:8 42.3707 
2 *49:8 *562:RESET_B 16.0254 
*END

*D_NET *50 0.000943514
*CONN
*I *563:RESET_B I *D sky130_fd_sc_hd__dfrtp_1
*I *437:Y O *D sky130_fd_sc_hd__inv_2
*CAP
1 *563:RESET_B 0.000172056
2 *437:Y 0.000114922
3 *50:10 0.000286978
4 *563:RESET_B *194:12 2.20111e-05
5 *563:RESET_B *195:8 0.000177604
6 *50:10 *437:A 2.93845e-05
7 *50:10 *546:A 0.000110922
8 *50:10 *181:8 2.96369e-05
*RES
1 *437:Y *50:10 40.175 
2 *50:10 *563:RESET_B 18.4075 
*END

*D_NET *51 0.00191574
*CONN
*I *564:RESET_B I *D sky130_fd_sc_hd__dfrtp_1
*I *438:Y O *D sky130_fd_sc_hd__inv_2
*CAP
1 *564:RESET_B 6.95709e-05
2 *438:Y 0.000423479
3 *51:10 0.00049305
4 *564:RESET_B *170:51 0.000102783
5 *564:RESET_B *196:10 5.67058e-05
6 *51:10 *53:8 0
7 *51:10 *92:10 0.000352547
8 *51:10 *152:85 1.69668e-05
9 *51:10 *152:101 3.71369e-05
10 *51:10 *170:51 0
11 *51:10 *196:10 0.000363498
*RES
1 *438:Y *51:10 49.1029 
2 *51:10 *564:RESET_B 16.9782 
*END

*D_NET *52 0.000909569
*CONN
*I *565:RESET_B I *D sky130_fd_sc_hd__dfrtp_1
*I *439:Y O *D sky130_fd_sc_hd__inv_2
*CAP
1 *565:RESET_B 0.000130054
2 *439:Y 0.000130054
3 *565:RESET_B *621:A 5.67058e-05
4 *565:RESET_B *65:14 0.000528309
5 *3:8 *565:RESET_B 6.44467e-05
*RES
1 *439:Y *565:RESET_B 28.7896 
*END

*D_NET *53 0.000480559
*CONN
*I *566:SET_B I *D sky130_fd_sc_hd__dfstp_1
*I *440:Y O *D sky130_fd_sc_hd__inv_2
*CAP
1 *566:SET_B 9.2093e-05
2 *440:Y 0.000126517
3 *53:8 0.00021861
4 *53:8 *148:10 4.334e-05
5 *51:10 *53:8 0
*RES
1 *440:Y *53:8 40.61 
2 *53:8 *566:SET_B 16.5018 
*END

*D_NET *54 0.000196704
*CONN
*I *567:RESET_B I *D sky130_fd_sc_hd__dfrtp_1
*I *441:Y O *D sky130_fd_sc_hd__inv_2
*CAP
1 *567:RESET_B 0
2 *441:Y 9.8352e-05
3 *54:8 9.8352e-05
4 *54:8 *91:35 0
*RES
1 *441:Y *54:8 39.5536 
2 *54:8 *567:RESET_B 15 
*END

*D_NET *55 0.000459177
*CONN
*I *568:RESET_B I *D sky130_fd_sc_hd__dfrtp_1
*I *442:Y O *D sky130_fd_sc_hd__inv_2
*CAP
1 *568:RESET_B 0
2 *442:Y 0.000169802
3 *55:10 0.000169802
4 *55:10 *442:A 1.94693e-05
5 *55:10 *123:20 9.63918e-05
6 *55:10 *152:16 3.7122e-06
*RES
1 *442:Y *55:10 41.2314 
2 *55:10 *568:RESET_B 15 
*END

*D_NET *56 0.00219424
*CONN
*I *569:RESET_B I *D sky130_fd_sc_hd__dfrtp_1
*I *443:Y O *D sky130_fd_sc_hd__inv_2
*CAP
1 *569:RESET_B 0.000647906
2 *443:Y 0.000647906
3 *569:RESET_B *443:A 5.3304e-05
4 *569:RESET_B *473:A1 9.84851e-05
5 *569:RESET_B *473:S 0.000233735
6 *569:RESET_B *72:10 0.000187129
7 *569:RESET_B *153:75 6.52495e-05
8 *569:RESET_B *165:10 0.000141052
9 *569:RESET_B *188:16 0.000119477
*RES
1 *443:Y *569:RESET_B 36.8889 
*END

*D_NET *57 0.00139982
*CONN
*I *570:RESET_B I *D sky130_fd_sc_hd__dfrtp_1
*I *444:Y O *D sky130_fd_sc_hd__inv_2
*CAP
1 *570:RESET_B 0.000319986
2 *444:Y 0.000319986
3 *570:RESET_B *574:CLK 5.3304e-05
4 *570:RESET_B *123:8 0.000394994
5 *570:RESET_B *188:8 0.000311554
*RES
1 *444:Y *570:RESET_B 31.2132 
*END

*D_NET *58 0.000479081
*CONN
*I *571:RESET_B I *D sky130_fd_sc_hd__dfrtp_1
*I *445:Y O *D sky130_fd_sc_hd__inv_2
*CAP
1 *571:RESET_B 0.000125021
2 *445:Y 0.000125021
3 *571:RESET_B *177:10 9.49986e-05
4 *571:RESET_B *189:8 0.00013404
*RES
1 *445:Y *571:RESET_B 25.9311 
*END

*D_NET *59 0.000929496
*CONN
*I *572:RESET_B I *D sky130_fd_sc_hd__dfrtp_1
*I *446:Y O *D sky130_fd_sc_hd__inv_2
*CAP
1 *572:RESET_B 0.000272928
2 *446:Y 0.000109896
3 *59:8 0.000382825
4 *572:RESET_B *190:6 1.94693e-05
5 *572:RESET_B *190:27 5.12328e-05
6 *59:8 *190:14 0
7 *59:8 *190:27 9.03784e-05
8 *613:A *59:8 2.76611e-06
*RES
1 *446:Y *59:8 40.2579 
2 *59:8 *572:RESET_B 19.3604 
*END

*D_NET *60 0.000397676
*CONN
*I *573:RESET_B I *D sky130_fd_sc_hd__dfrtp_1
*I *447:Y O *D sky130_fd_sc_hd__inv_2
*CAP
1 *573:RESET_B 0.000169382
2 *447:Y 0.000169382
3 *573:RESET_B *152:135 4.83893e-05
4 *573:RESET_B *191:8 1.05235e-05
*RES
1 *447:Y *573:RESET_B 25.4546 
*END

*D_NET *61 0.000887749
*CONN
*I *574:RESET_B I *D sky130_fd_sc_hd__dfrtp_1
*I *448:Y O *D sky130_fd_sc_hd__inv_2
*CAP
1 *574:RESET_B 8.32891e-05
2 *448:Y 0.000158461
3 *61:10 0.00024175
4 *574:RESET_B *180:10 4.13387e-05
5 *574:RESET_B *192:16 0.00013273
6 *61:10 *609:A 0.000113153
7 *61:10 *153:75 1.24376e-05
8 *61:10 *192:16 9.26098e-05
9 *12:11 *61:10 1.19796e-05
*RES